<?xml version="1.0" encoding="UTF-8"?>

<!-- generated on 03/05/20 10:32:27 by Eclipse SUMO netconvert Version 1.3.1
<configuration xmlns:xsi="http://www.w3.org/2001/XMLSchema-instance" xsi:noNamespaceSchemaLocation="http://sumo.dlr.de/xsd/netconvertConfiguration.xsd">

    <input>
        <type-files value="osmNetconvert.typ.xml,osmNetconvertUrbanDe.typ.xml,osmNetconvertPedestrians.typ.xml"/>
        <osm-files value="map7.osm"/>
    </input>

    <output>
        <output-file value="map7.net.xml"/>
    </output>

    <projection>
        <proj.utm value="true"/>
    </projection>

    <processing>
        <geometry.remove value="true"/>
        <roundabouts.guess value="true"/>
    </processing>

    <tls_building>
        <tls.discard-simple value="true"/>
        <tls.join value="true"/>
        <tls.guess-signals value="true"/>
    </tls_building>

    <ramp_guessing>
        <ramps.guess value="true"/>
    </ramp_guessing>

    <junctions>
        <junctions.join value="true"/>
    </junctions>

</configuration>
-->

<net version="1.3" junctionCornerDetail="5" limitTurnSpeed="5.50" xmlns:xsi="http://www.w3.org/2001/XMLSchema-instance" xsi:noNamespaceSchemaLocation="http://sumo.dlr.de/xsd/net_file.xsd">

    <location netOffset="-369896.65,-3149556.62" convBoundary="0.00,0.00,2420.75,2302.18" origBoundary="-16.329101,28.466230,-16.304261,28.487001" projParameter="+proj=utm +zone=28 +ellps=WGS84 +datum=WGS84 +units=m +no_defs"/>

    <type id="highway.bridleway" priority="1" numLanes="1" speed="2.78" allow="pedestrian" oneway="1" width="2.00"/>
    <type id="highway.bus_guideway" priority="1" numLanes="1" speed="13.89" allow="bus" oneway="1"/>
    <type id="highway.cycleway" priority="1" numLanes="1" speed="8.33" allow="bicycle" oneway="0" width="1.00"/>
    <type id="highway.footway" priority="1" numLanes="1" speed="2.78" allow="pedestrian" oneway="1" width="2.00"/>
    <type id="highway.ford" priority="1" numLanes="1" speed="2.78" allow="army" oneway="0"/>
    <type id="highway.living_street" priority="2" numLanes="1" speed="2.78" disallow="tram rail_urban rail rail_electric rail_fast ship" oneway="0"/>
    <type id="highway.motorway" priority="14" numLanes="2" speed="27.78" allow="private emergency authority army vip passenger hov taxi bus coach delivery truck trailer motorcycle evehicle custom1 custom2" oneway="1"/>
    <type id="highway.motorway_link" priority="9" numLanes="1" speed="16.67" allow="private emergency authority army vip passenger hov taxi bus coach delivery truck trailer motorcycle evehicle custom1 custom2" oneway="1"/>
    <type id="highway.path" priority="1" numLanes="1" speed="2.78" allow="pedestrian bicycle" oneway="1" width="2.00"/>
    <type id="highway.pedestrian" priority="1" numLanes="1" speed="2.78" allow="pedestrian" oneway="1" width="2.00"/>
    <type id="highway.primary" priority="12" numLanes="2" speed="13.89" disallow="pedestrian tram rail_urban rail rail_electric rail_fast ship" oneway="0" sidewalkWidth="3.00"/>
    <type id="highway.primary_link" priority="7" numLanes="1" speed="13.89" disallow="pedestrian tram rail_urban rail rail_electric rail_fast ship" oneway="0" sidewalkWidth="3.00"/>
    <type id="highway.raceway" priority="15" numLanes="2" speed="83.33" allow="vip" oneway="0"/>
    <type id="highway.residential" priority="3" numLanes="1" speed="13.89" disallow="pedestrian tram rail_urban rail rail_electric rail_fast ship" oneway="0" sidewalkWidth="2.00"/>
    <type id="highway.secondary" priority="11" numLanes="1" speed="13.89" disallow="pedestrian tram rail_urban rail rail_electric rail_fast ship" oneway="0" sidewalkWidth="3.00"/>
    <type id="highway.secondary_link" priority="6" numLanes="1" speed="13.89" disallow="pedestrian tram rail_urban rail rail_electric rail_fast ship" oneway="0" sidewalkWidth="3.00"/>
    <type id="highway.service" priority="1" numLanes="1" speed="5.56" allow="pedestrian delivery bicycle" oneway="0"/>
    <type id="highway.stairs" priority="1" numLanes="1" speed="1.39" allow="pedestrian" oneway="1" width="2.00"/>
    <type id="highway.step" priority="1" numLanes="1" speed="1.39" allow="pedestrian" oneway="1" width="2.00"/>
    <type id="highway.steps" priority="1" numLanes="1" speed="1.39" allow="pedestrian" oneway="1" width="2.00"/>
    <type id="highway.tertiary" priority="10" numLanes="1" speed="13.89" disallow="pedestrian tram rail_urban rail rail_electric rail_fast ship" oneway="0" sidewalkWidth="3.00"/>
    <type id="highway.tertiary_link" priority="5" numLanes="1" speed="13.89" disallow="pedestrian tram rail_urban rail rail_electric rail_fast ship" oneway="0" sidewalkWidth="2.00"/>
    <type id="highway.track" priority="1" numLanes="1" speed="5.56" disallow="tram rail_urban rail rail_electric rail_fast ship" oneway="0"/>
    <type id="highway.trunk" priority="13" numLanes="2" speed="13.89" disallow="pedestrian bicycle tram rail_urban rail rail_electric rail_fast ship" oneway="0"/>
    <type id="highway.trunk_link" priority="8" numLanes="1" speed="13.89" disallow="pedestrian bicycle tram rail_urban rail rail_electric rail_fast ship" oneway="0"/>
    <type id="highway.unclassified" priority="4" numLanes="1" speed="13.89" disallow="pedestrian tram rail_urban rail rail_electric rail_fast ship" oneway="0" sidewalkWidth="2.00"/>
    <type id="highway.unsurfaced" priority="1" numLanes="1" speed="8.33" disallow="tram rail_urban rail rail_electric rail_fast ship" oneway="0"/>
    <type id="railway.highspeed" priority="21" numLanes="1" speed="69.44" allow="rail_fast" oneway="1"/>
    <type id="railway.light_rail" priority="19" numLanes="1" speed="27.78" allow="rail_urban" oneway="1"/>
    <type id="railway.preserved" priority="16" numLanes="1" speed="27.78" allow="rail" oneway="1"/>
    <type id="railway.rail" priority="20" numLanes="1" speed="44.44" allow="rail" oneway="1"/>
    <type id="railway.subway" priority="18" numLanes="1" speed="27.78" allow="rail_urban" oneway="1"/>
    <type id="railway.tram" priority="17" numLanes="1" speed="13.89" allow="tram" oneway="1"/>

    <edge id=":1001504521_0" function="internal">
        <lane id=":1001504521_0_0" index="0" disallow="pedestrian tram rail_urban rail rail_electric rail_fast ship" speed="13.89" length="41.14" shape="1318.87,1279.01 1345.81,1247.92"/>
    </edge>
    <edge id=":1001504521_1" function="internal">
        <lane id=":1001504521_1_0" index="0" allow="private emergency authority army vip passenger hov taxi bus coach delivery truck trailer motorcycle evehicle custom1 custom2" speed="15.28" length="39.74" shape="1321.28,1281.12 1347.61,1251.35"/>
    </edge>
    <edge id=":1005902353_0" function="internal">
        <lane id=":1005902353_0_0" index="0" allow="pedestrian delivery bicycle" speed="5.56" length="12.71" shape="780.33,1861.62 780.21,1848.91"/>
    </edge>
    <edge id=":1005902353_1" function="internal">
        <lane id=":1005902353_1_0" index="0" allow="pedestrian delivery bicycle" speed="5.56" length="13.61" shape="780.33,1861.62 780.90,1858.28 782.50,1855.50 784.74,1852.96 787.22,1850.31"/>
    </edge>
    <edge id=":1005902353_2" function="internal">
        <lane id=":1005902353_2_0" index="0" allow="pedestrian delivery bicycle" speed="3.65" length="4.67" shape="780.33,1861.62 781.11,1860.41 781.90,1859.99 782.71,1860.37 783.53,1861.56"/>
    </edge>
    <edge id=":1005902353_3" function="internal">
        <lane id=":1005902353_3_0" index="0" allow="pedestrian delivery bicycle" speed="5.56" length="11.42" shape="789.63,1852.42 787.27,1854.73 785.30,1856.52 783.98,1858.55 783.53,1861.56"/>
    </edge>
    <edge id=":1005902353_4" function="internal">
        <lane id=":1005902353_4_0" index="0" allow="pedestrian delivery bicycle" speed="5.56" length="17.05" shape="789.63,1852.42 785.57,1856.16 782.65,1856.82 780.87,1854.41 780.21,1848.91"/>
    </edge>
    <edge id=":1005902353_5" function="internal">
        <lane id=":1005902353_5_0" index="0" allow="pedestrian delivery bicycle" speed="3.65" length="4.67" shape="789.63,1852.42 788.23,1852.79 787.37,1852.57 787.03,1851.74 787.22,1850.31"/>
    </edge>
    <edge id=":1005902353_6" function="internal">
        <lane id=":1005902353_6_0" index="0" allow="pedestrian delivery bicycle" speed="4.70" length="6.89" shape="783.41,1848.89 783.68,1851.12 784.40,1852.09 785.58,1851.82 787.22,1850.31"/>
    </edge>
    <edge id=":1005902353_7" function="internal">
        <lane id=":1005902353_7_0" index="0" allow="pedestrian delivery bicycle" speed="5.56" length="12.66" shape="783.41,1848.89 783.53,1861.56"/>
    </edge>
    <edge id=":1005902353_8" function="internal">
        <lane id=":1005902353_8_0" index="0" allow="pedestrian delivery bicycle" speed="3.65" length="4.67" shape="783.41,1848.89 782.62,1850.10 781.82,1850.50 781.02,1850.11 780.21,1848.91"/>
    </edge>
    <edge id=":1005902356_0" function="internal">
        <lane id=":1005902356_0_0" index="0" allow="pedestrian delivery bicycle" speed="4.68" length="6.68" shape="795.51,1837.47 795.88,1839.58 796.65,1840.50 797.82,1840.23 799.39,1838.78"/>
    </edge>
    <edge id=":1005902356_1" function="internal">
        <lane id=":1005902356_1_0" index="0" allow="pedestrian delivery bicycle" speed="5.56" length="6.97" shape="795.51,1837.47 796.69,1844.34"/>
    </edge>
    <edge id=":1005902356_2" function="internal">
        <lane id=":1005902356_2_0" index="0" allow="pedestrian delivery bicycle" speed="5.56" length="6.23" shape="794.29,1842.23 795.66,1841.04 796.84,1840.51 798.03,1839.98 799.39,1838.78"/>
    </edge>
    <edge id=":1005902356_3" function="internal">
        <lane id=":1005902356_3_0" index="0" allow="pedestrian delivery bicycle" speed="3.65" length="4.67" shape="794.29,1842.23 795.68,1841.86 796.54,1842.08 796.88,1842.91 796.69,1844.34"/>
    </edge>
    <edge id=":1005902365_0" function="internal">
        <lane id=":1005902365_0_0" index="0" allow="pedestrian delivery bicycle" speed="5.56" length="5.00" shape="780.16,1844.96 780.11,1839.96"/>
    </edge>
    <edge id=":1005902365_1" function="internal">
        <lane id=":1005902365_1_0" index="0" allow="pedestrian delivery bicycle" speed="3.65" length="4.67" shape="780.16,1844.96 780.95,1843.75 781.74,1843.34 782.55,1843.73 783.36,1844.92"/>
    </edge>
    <edge id=":1005902365_2" function="internal">
        <lane id=":1005902365_2_0" index="0" allow="pedestrian delivery bicycle" speed="5.56" length="4.98" shape="783.31,1839.94 783.36,1844.92"/>
    </edge>
    <edge id=":1005902365_3" function="internal">
        <lane id=":1005902365_3_0" index="0" allow="pedestrian delivery bicycle" speed="3.65" length="4.67" shape="783.31,1839.94 782.52,1841.14 781.73,1841.55 780.92,1841.16 780.11,1839.96"/>
    </edge>
    <edge id=":1005902366_0" function="internal">
        <lane id=":1005902366_0_0" index="0" allow="pedestrian delivery bicycle" speed="5.56" length="8.60" shape="808.20,1811.65 806.61,1811.07 804.69,1810.97 802.45,1811.36 799.88,1812.23"/>
    </edge>
    <edge id=":1005902366_1" function="internal">
        <lane id=":1005902366_1_0" index="0" allow="pedestrian delivery bicycle" speed="5.56" length="7.11" shape="808.20,1811.65 806.91,1810.99 804.91,1809.95 803.07,1808.81 802.26,1807.87"/>
    </edge>
    <edge id=":1005902366_2" function="internal">
        <lane id=":1005902366_2_0" index="0" allow="pedestrian delivery bicycle" speed="5.56" length="7.37" shape="805.46,1807.86 805.12,1808.92 804.07,1810.00 802.33,1811.10 799.88,1812.23"/>
    </edge>
    <edge id=":1005902366_3" function="internal">
        <lane id=":1005902366_3_0" index="0" allow="pedestrian delivery bicycle" speed="3.65" length="4.67" shape="805.46,1807.86 804.67,1809.06 803.87,1809.46 803.07,1809.07 802.26,1807.87"/>
    </edge>
    <edge id=":1005902368_0" function="internal">
        <lane id=":1005902368_0_0" index="0" allow="pedestrian delivery bicycle" speed="4.94" length="4.72" shape="780.02,1828.63 779.84,1827.29 779.32,1826.32 778.46,1825.74 777.26,1825.54"/>
    </edge>
    <edge id=":1005902368_1" function="internal">
        <lane id=":1005902368_1_0" index="0" allow="pedestrian delivery bicycle" speed="5.56" length="9.38" shape="780.02,1828.63 780.02,1819.26"/>
    </edge>
    <edge id=":1005902368_2" function="internal">
        <lane id=":1005902368_2_0" index="0" allow="pedestrian delivery bicycle" speed="3.65" length="4.67" shape="780.02,1828.63 780.81,1827.43 781.61,1827.02 782.41,1827.42 783.22,1828.61"/>
    </edge>
    <edge id=":1005902368_3" function="internal">
        <lane id=":1005902368_3_0" index="0" allow="pedestrian delivery bicycle" speed="5.56" length="9.33" shape="783.22,1819.28 783.22,1828.61"/>
    </edge>
    <edge id=":1005902368_4" function="internal">
        <lane id=":1005902368_4_0" index="0" allow="pedestrian delivery bicycle" speed="5.56" length="9.85" shape="783.22,1819.28 782.83,1822.03 781.71,1823.99 779.85,1825.16 777.26,1825.54"/>
    </edge>
    <edge id=":1005902368_5" function="internal">
        <lane id=":1005902368_5_0" index="0" allow="pedestrian delivery bicycle" speed="3.65" length="4.67" shape="783.22,1819.28 782.41,1820.48 781.61,1820.87 780.81,1820.46 780.02,1819.26"/>
    </edge>
    <edge id=":1005902368_6" function="internal">
        <lane id=":1005902368_6_0" index="0" allow="pedestrian delivery bicycle" speed="4.92" length="4.71" shape="777.27,1822.34 778.46,1822.15 779.32,1821.58 779.84,1820.61 780.02,1819.26"/>
    </edge>
    <edge id=":1005902368_7" function="internal">
        <lane id=":1005902368_7_0" index="0" allow="pedestrian delivery bicycle" speed="5.56" length="9.83" shape="777.27,1822.34 779.86,1822.74 781.71,1823.92 782.83,1825.88 783.22,1828.61"/>
    </edge>
    <edge id=":1005902368_8" function="internal">
        <lane id=":1005902368_8_0" index="0" allow="pedestrian delivery bicycle" speed="3.65" length="4.67" shape="777.27,1822.34 778.47,1823.15 778.86,1823.95 778.46,1824.75 777.26,1825.54"/>
    </edge>
    <edge id=":1012196238_0" function="internal">
        <lane id=":1012196238_0_0" index="0" disallow="pedestrian tram rail_urban rail rail_electric rail_fast ship" speed="13.89" length="5.00" shape="1318.34,1823.21 1320.10,1827.89"/>
    </edge>
    <edge id=":1012196280_0" function="internal">
        <lane id=":1012196280_0_0" index="0" disallow="pedestrian tram rail_urban rail rail_electric rail_fast ship" speed="13.89" length="4.98" shape="1324.16,1838.72 1325.95,1843.36"/>
    </edge>
    <edge id=":1012196576_0" function="internal">
        <lane id=":1012196576_0_0" index="0" disallow="pedestrian tram rail_urban rail rail_electric rail_fast ship" speed="13.89" length="5.03" shape="1199.10,1859.41 1197.38,1854.69"/>
    </edge>
    <edge id=":1038292572_0" function="internal">
        <lane id=":1038292572_0_0" index="0" disallow="pedestrian tram rail_urban rail rail_electric rail_fast ship" speed="7.44" length="8.87" shape="851.59,1898.59 850.61,1900.24 850.31,1902.17 850.70,1904.40 851.78,1906.91"/>
    </edge>
    <edge id=":1038292572_1" function="internal">
        <lane id=":1038292572_1_0" index="0" disallow="pedestrian tram rail_urban rail rail_electric rail_fast ship" speed="13.89" length="8.70" shape="851.59,1898.59 845.94,1905.20"/>
    </edge>
    <edge id=":1038292574_0" function="internal">
        <lane id=":1038292574_0_0" index="0" disallow="pedestrian tram rail_urban rail rail_electric rail_fast ship" speed="8.66" length="9.58" shape="856.78,1912.80 859.37,1914.58 861.68,1915.68 863.72,1916.11 865.50,1915.86"/>
    </edge>
    <edge id=":1038292574_1" function="internal">
        <lane id=":1038292574_1_0" index="0" disallow="pedestrian tram rail_urban rail rail_electric rail_fast ship" speed="13.89" length="9.31" shape="856.69,1918.87 865.50,1915.86"/>
    </edge>
    <edge id=":1065961813_0" function="internal">
        <lane id=":1065961813_0_0" index="0" disallow="pedestrian tram rail_urban rail rail_electric rail_fast ship" speed="13.89" length="12.76" shape="1215.79,1375.41 1214.98,1379.11 1214.30,1381.64 1213.22,1383.99 1211.21,1387.18"/>
    </edge>
    <edge id=":1065961813_1" function="internal">
        <lane id=":1065961813_1_0" index="0" disallow="pedestrian tram rail_urban rail rail_electric rail_fast ship" speed="8.39" length="12.26" shape="1209.00,1375.99 1211.15,1379.12 1212.24,1382.03 1212.26,1384.71 1211.21,1387.18"/>
    </edge>
    <edge id=":1065961820_0" function="internal">
        <lane id=":1065961820_0_0" index="0" disallow="pedestrian tram rail_urban rail rail_electric rail_fast ship" speed="13.89" length="13.51" shape="1055.25,1351.81 1054.91,1338.31"/>
    </edge>
    <edge id=":1065961820_1" function="internal">
        <lane id=":1065961820_1_0" index="0" disallow="pedestrian tram rail_urban rail rail_electric rail_fast ship" speed="7.97" length="5.63" shape="1055.25,1351.81 1055.73,1348.05 1056.71,1346.51"/>
    </edge>
    <edge id=":1065961820_2" function="internal">
        <lane id=":1065961820_2_0" index="0" disallow="pedestrian tram rail_urban rail rail_electric rail_fast ship" speed="3.65" length="2.34" shape="1055.25,1351.81 1056.01,1350.59 1056.80,1350.17"/>
    </edge>
    <edge id=":1065961820_9" function="internal">
        <lane id=":1065961820_9_0" index="0" disallow="pedestrian tram rail_urban rail rail_electric rail_fast ship" speed="7.97" length="8.90" shape="1056.71,1346.51 1057.44,1345.37 1060.39,1343.78 1064.56,1343.29"/>
    </edge>
    <edge id=":1065961820_10" function="internal">
        <lane id=":1065961820_10_0" index="0" disallow="pedestrian tram rail_urban rail rail_electric rail_fast ship" speed="3.65" length="2.34" shape="1056.80,1350.17 1057.61,1350.54 1058.44,1351.71"/>
    </edge>
    <edge id=":1065961820_3" function="internal">
        <lane id=":1065961820_3_0" index="0" disallow="pedestrian tram rail_urban rail rail_electric rail_fast ship" speed="6.48" length="9.22" shape="1064.53,1346.49 1061.81,1346.79 1059.88,1347.76 1058.76,1349.40 1058.44,1351.71"/>
    </edge>
    <edge id=":1065961820_4" function="internal">
        <lane id=":1065961820_4_0" index="0" disallow="pedestrian tram rail_urban rail rail_electric rail_fast ship" speed="8.11" length="14.28" shape="1064.53,1346.49 1060.38,1345.94 1057.39,1344.40 1055.57,1341.85 1054.91,1338.31"/>
    </edge>
    <edge id=":1065961820_5" function="internal">
        <lane id=":1065961820_5_0" index="0" disallow="pedestrian tram rail_urban rail rail_electric rail_fast ship" speed="3.65" length="4.67" shape="1064.53,1346.49 1063.34,1345.67 1062.95,1344.87 1063.35,1344.07 1064.56,1343.29"/>
    </edge>
    <edge id=":1065961820_6" function="internal">
        <lane id=":1065961820_6_0" index="0" disallow="pedestrian tram rail_urban rail rail_electric rail_fast ship" speed="6.64" length="9.24" shape="1058.11,1338.25 1058.55,1340.43 1059.77,1342.00 1061.77,1342.95 1064.56,1343.29"/>
    </edge>
    <edge id=":1065961820_7" function="internal">
        <lane id=":1065961820_7_0" index="0" disallow="pedestrian tram rail_urban rail rail_electric rail_fast ship" speed="13.89" length="13.47" shape="1058.11,1338.25 1058.44,1351.71"/>
    </edge>
    <edge id=":1065961820_8" function="internal">
        <lane id=":1065961820_8_0" index="0" disallow="pedestrian tram rail_urban rail rail_electric rail_fast ship" speed="3.65" length="2.34" shape="1058.11,1338.25 1057.33,1339.47 1056.54,1339.88"/>
    </edge>
    <edge id=":1065961820_11" function="internal">
        <lane id=":1065961820_11_0" index="0" disallow="pedestrian tram rail_urban rail rail_electric rail_fast ship" speed="3.65" length="2.34" shape="1056.54,1339.88 1055.73,1339.50 1054.91,1338.31"/>
    </edge>
    <edge id=":1065961830_0" function="internal">
        <lane id=":1065961830_0_0" index="0" allow="pedestrian delivery bicycle" speed="5.71" length="5.81" shape="760.48,1387.56 759.97,1386.35 759.03,1385.51 757.66,1385.03 755.87,1384.92"/>
    </edge>
    <edge id=":1065961830_1" function="internal">
        <lane id=":1065961830_1_0" index="0" disallow="pedestrian tram rail_urban rail rail_electric rail_fast ship" speed="13.89" length="9.52" shape="760.48,1387.56 758.44,1378.26"/>
    </edge>
    <edge id=":1065961830_2" function="internal">
        <lane id=":1065961830_2_0" index="0" disallow="pedestrian tram rail_urban rail rail_electric rail_fast ship" speed="3.65" length="2.34" shape="760.48,1387.56 761.01,1386.22 761.71,1385.66"/>
    </edge>
    <edge id=":1065961830_9" function="internal">
        <lane id=":1065961830_9_0" index="0" disallow="pedestrian tram rail_urban rail rail_electric rail_fast ship" speed="3.65" length="2.34" shape="761.71,1385.66 762.57,1385.88 763.61,1386.88"/>
    </edge>
    <edge id=":1065961830_3" function="internal">
        <lane id=":1065961830_3_0" index="0" disallow="pedestrian tram rail_urban rail rail_electric rail_fast ship" speed="13.89" length="9.53" shape="761.57,1377.57 763.61,1386.88"/>
    </edge>
    <edge id=":1065961830_4" function="internal">
        <lane id=":1065961830_4_0" index="0" allow="pedestrian delivery bicycle" speed="6.74" length="5.24" shape="761.57,1377.57 761.80,1380.69 761.04,1382.66"/>
    </edge>
    <edge id=":1065961830_5" function="internal">
        <lane id=":1065961830_5_0" index="0" disallow="pedestrian tram rail_urban rail rail_electric rail_fast ship" speed="3.65" length="2.34" shape="761.57,1377.57 761.05,1378.91 760.35,1379.48"/>
    </edge>
    <edge id=":1065961830_10" function="internal">
        <lane id=":1065961830_10_0" index="0" allow="pedestrian delivery bicycle" speed="6.74" length="5.87" shape="761.04,1382.66 760.93,1382.96 758.95,1384.37 755.87,1384.92"/>
    </edge>
    <edge id=":1065961830_11" function="internal">
        <lane id=":1065961830_11_0" index="0" disallow="pedestrian tram rail_urban rail rail_electric rail_fast ship" speed="3.65" length="2.34" shape="760.35,1379.48 759.48,1379.26 758.44,1378.26"/>
    </edge>
    <edge id=":1065961830_6" function="internal">
        <lane id=":1065961830_6_0" index="0" disallow="pedestrian tram rail_urban rail rail_electric rail_fast ship" speed="4.87" length="5.23" shape="755.76,1381.72 757.21,1381.46 758.14,1380.80 758.55,1379.73 758.44,1378.26"/>
    </edge>
    <edge id=":1065961830_7" function="internal">
        <lane id=":1065961830_7_0" index="0" disallow="pedestrian tram rail_urban rail rail_electric rail_fast ship" speed="7.39" length="10.32" shape="755.76,1381.72 758.76,1381.96 761.06,1382.90 762.68,1384.54 763.61,1386.88"/>
    </edge>
    <edge id=":1065961830_8" function="internal">
        <lane id=":1065961830_8_0" index="0" allow="pedestrian delivery bicycle" speed="3.65" length="4.67" shape="755.76,1381.72 756.99,1382.48 757.42,1383.27 757.05,1384.08 755.87,1384.92"/>
    </edge>
    <edge id=":1065961835_0" function="internal">
        <lane id=":1065961835_0_0" index="0" allow="pedestrian delivery bicycle" speed="5.56" length="12.08" shape="940.82,1588.28 937.01,1576.81"/>
    </edge>
    <edge id=":1065961835_1" function="internal">
        <lane id=":1065961835_1_0" index="0" allow="pedestrian delivery bicycle" speed="5.56" length="13.81" shape="940.82,1588.28 939.47,1583.39 939.54,1581.48 941.03,1582.55 943.95,1586.60"/>
    </edge>
    <edge id=":1065961837_0" function="internal">
        <lane id=":1065961837_0_0" index="0" allow="pedestrian delivery bicycle" speed="5.56" length="6.14" shape="684.17,1374.00 682.90,1374.32 681.89,1375.17 681.14,1376.53 680.66,1378.43"/>
    </edge>
    <edge id=":1065961837_1" function="internal">
        <lane id=":1065961837_1_0" index="0" allow="pedestrian delivery bicycle" speed="5.56" length="9.68" shape="684.17,1374.00 674.51,1374.73"/>
    </edge>
    <edge id=":1065961837_2" function="internal">
        <lane id=":1065961837_2_0" index="0" allow="pedestrian delivery bicycle" speed="3.65" length="4.67" shape="684.17,1374.00 682.93,1373.25 682.50,1372.47 682.87,1371.65 684.04,1370.80"/>
    </edge>
    <edge id=":1065961837_3" function="internal">
        <lane id=":1065961837_3_0" index="0" allow="pedestrian delivery bicycle" speed="5.56" length="9.87" shape="674.19,1371.55 684.04,1370.80"/>
    </edge>
    <edge id=":1065961837_4" function="internal">
        <lane id=":1065961837_4_0" index="0" allow="pedestrian delivery bicycle" speed="5.56" length="11.57" shape="674.19,1371.55 677.49,1371.69 679.67,1372.88 680.73,1375.13 680.66,1378.43"/>
    </edge>
    <edge id=":1065961837_5" function="internal">
        <lane id=":1065961837_5_0" index="0" allow="pedestrian delivery bicycle" speed="3.65" length="4.67" shape="674.19,1371.55 675.47,1372.22 675.94,1372.98 675.63,1373.82 674.51,1374.73"/>
    </edge>
    <edge id=":1065961837_6" function="internal">
        <lane id=":1065961837_6_0" index="0" allow="pedestrian delivery bicycle" speed="4.81" length="5.35" shape="677.50,1377.91 677.53,1376.39 677.04,1375.35 676.04,1374.80 674.51,1374.73"/>
    </edge>
    <edge id=":1065961837_7" function="internal">
        <lane id=":1065961837_7_0" index="0" allow="pedestrian delivery bicycle" speed="5.56" length="10.55" shape="677.50,1377.91 678.33,1374.89 679.70,1372.69 681.60,1371.33 684.04,1370.80"/>
    </edge>
    <edge id=":1065961837_8" function="internal">
        <lane id=":1065961837_8_0" index="0" allow="pedestrian delivery bicycle" speed="3.65" length="4.67" shape="677.50,1377.91 678.49,1376.86 679.34,1376.59 680.06,1377.11 680.66,1378.43"/>
    </edge>
    <edge id=":1065961841_0" function="internal">
        <lane id=":1065961841_0_0" index="0" disallow="pedestrian tram rail_urban rail rail_electric rail_fast ship" speed="13.89" length="2.78" shape="793.92,1508.72 792.62,1506.27"/>
    </edge>
    <edge id=":1065961841_1" function="internal">
        <lane id=":1065961841_1_0" index="0" disallow="pedestrian tram rail_urban rail rail_electric rail_fast ship" speed="13.89" length="2.53" shape="795.50,1504.89 796.69,1507.12"/>
    </edge>
    <edge id=":1065961842_0" function="internal">
        <lane id=":1065961842_0_0" index="0" disallow="pedestrian tram rail_urban rail rail_electric rail_fast ship" speed="6.53" length="8.97" shape="1108.03,1352.52 1107.66,1350.07 1106.63,1348.31 1104.91,1347.24 1102.52,1346.86"/>
    </edge>
    <edge id=":1065961842_1" function="internal">
        <lane id=":1065961842_1_0" index="0" disallow="pedestrian tram rail_urban rail rail_electric rail_fast ship" speed="7.27" length="11.72" shape="1108.03,1352.52 1108.35,1348.67 1109.39,1345.93 1111.15,1344.31 1113.63,1343.79"/>
    </edge>
    <edge id=":1065961842_2" function="internal">
        <lane id=":1065961842_2_0" index="0" disallow="pedestrian tram rail_urban rail rail_electric rail_fast ship" speed="13.89" length="11.07" shape="1113.59,1346.99 1102.52,1346.86"/>
    </edge>
    <edge id=":1065961842_3" function="internal">
        <lane id=":1065961842_3_0" index="0" disallow="pedestrian tram rail_urban rail rail_electric rail_fast ship" speed="3.65" length="2.34" shape="1113.59,1346.99 1112.40,1346.18 1112.01,1345.37"/>
    </edge>
    <edge id=":1065961842_6" function="internal">
        <lane id=":1065961842_6_0" index="0" disallow="pedestrian tram rail_urban rail rail_electric rail_fast ship" speed="3.65" length="2.34" shape="1112.01,1345.37 1112.42,1344.58 1113.63,1343.79"/>
    </edge>
    <edge id=":1065961842_4" function="internal">
        <lane id=":1065961842_4_0" index="0" disallow="pedestrian tram rail_urban rail rail_electric rail_fast ship" speed="13.89" length="11.08" shape="1102.55,1343.67 1113.63,1343.79"/>
    </edge>
    <edge id=":1065961842_5" function="internal">
        <lane id=":1065961842_5_0" index="0" disallow="pedestrian tram rail_urban rail rail_electric rail_fast ship" speed="3.65" length="2.34" shape="1102.55,1343.67 1103.74,1344.48 1104.14,1345.28"/>
    </edge>
    <edge id=":1065961842_7" function="internal">
        <lane id=":1065961842_7_0" index="0" disallow="pedestrian tram rail_urban rail rail_electric rail_fast ship" speed="3.65" length="2.34" shape="1104.14,1345.28 1103.73,1346.08 1102.52,1346.86"/>
    </edge>
    <edge id=":1065961848_0" function="internal">
        <lane id=":1065961848_0_0" index="0" disallow="pedestrian tram rail_urban rail rail_electric rail_fast ship" speed="6.52" length="8.96" shape="1154.91,1353.17 1154.56,1350.72 1153.53,1348.96 1151.82,1347.89 1149.43,1347.51"/>
    </edge>
    <edge id=":1065961848_1" function="internal">
        <lane id=":1065961848_1_0" index="0" disallow="pedestrian tram rail_urban rail rail_electric rail_fast ship" speed="7.28" length="11.68" shape="1154.91,1353.17 1155.25,1349.33 1156.30,1346.60 1158.05,1344.97 1160.51,1344.45"/>
    </edge>
    <edge id=":1065961848_2" function="internal">
        <lane id=":1065961848_2_0" index="0" disallow="pedestrian tram rail_urban rail rail_electric rail_fast ship" speed="13.89" length="11.05" shape="1160.47,1347.65 1149.43,1347.51"/>
    </edge>
    <edge id=":1065961848_3" function="internal">
        <lane id=":1065961848_3_0" index="0" disallow="pedestrian tram rail_urban rail rail_electric rail_fast ship" speed="3.65" length="2.34" shape="1160.47,1347.65 1159.28,1346.83 1158.89,1346.03"/>
    </edge>
    <edge id=":1065961848_6" function="internal">
        <lane id=":1065961848_6_0" index="0" disallow="pedestrian tram rail_urban rail rail_electric rail_fast ship" speed="3.65" length="2.34" shape="1158.89,1346.03 1159.30,1345.23 1160.51,1344.45"/>
    </edge>
    <edge id=":1065961848_4" function="internal">
        <lane id=":1065961848_4_0" index="0" disallow="pedestrian tram rail_urban rail rail_electric rail_fast ship" speed="13.89" length="11.03" shape="1149.47,1344.31 1160.51,1344.45"/>
    </edge>
    <edge id=":1065961848_5" function="internal">
        <lane id=":1065961848_5_0" index="0" disallow="pedestrian tram rail_urban rail rail_electric rail_fast ship" speed="3.65" length="2.34" shape="1149.47,1344.31 1150.66,1345.12 1151.05,1345.93"/>
    </edge>