<?xml version="1.0" encoding="UTF-8"?>

<!-- generated on 01/21/20 20:02:39 by Eclipse SUMO netedit Version 1.3.1
<configuration xmlns:xsi="http://www.w3.org/2001/XMLSchema-instance" xsi:noNamespaceSchemaLocation="http://sumo.dlr.de/xsd/netconvertConfiguration.xsd">

    <input>
        <sumo-net-file value="anchieta_21012020.net.xml"/>
    </input>

    <output>
        <output-file value="anchieta_21012020.net.xml"/>
    </output>

    <processing>
        <geometry.max-grade.fix value="false"/>
        <offset.disable-normalization value="true"/>
        <opposites.guess.fix-lengths value="true"/>
        <lefthand value="false"/>
    </processing>

    <junctions>
        <no-turnarounds value="true"/>
        <junctions.corner-detail value="5"/>
        <junctions.limit-turn-speed value="5.5"/>
        <rectangular-lane-cut value="false"/>
    </junctions>

    <pedestrian>
        <walkingareas value="false"/>
    </pedestrian>

</configuration>
-->

<net version="1.3" junctionCornerDetail="5" limitTurnSpeed="5.50" xmlns:xsi="http://www.w3.org/2001/XMLSchema-instance" xsi:noNamespaceSchemaLocation="http://sumo.dlr.de/xsd/net_file.xsd">

    <location netOffset="-370565.50,-3150749.92" convBoundary="33.27,49.19,886.35,858.85" origBoundary="-16.322303,28.476953,-16.313230,28.485358" projParameter="+proj=utm +zone=28 +ellps=WGS84 +datum=WGS84 +units=m +no_defs"/>

    <type id="highway.bridleway" priority="1" numLanes="1" speed="2.78" allow="pedestrian" oneway="1" width="2.00"/>
    <type id="highway.bus_guideway" priority="1" numLanes="1" speed="13.89" allow="bus" oneway="1"/>
    <type id="highway.cycleway" priority="1" numLanes="1" speed="8.33" allow="bicycle" oneway="0" width="1.00"/>
    <type id="highway.footway" priority="1" numLanes="1" speed="2.78" allow="pedestrian" oneway="1" width="2.00"/>
    <type id="highway.ford" priority="1" numLanes="1" speed="2.78" allow="army" oneway="0"/>
    <type id="highway.living_street" priority="2" numLanes="1" speed="2.78" disallow="tram rail_urban rail rail_electric rail_fast ship" oneway="0"/>
    <type id="highway.motorway" priority="14" numLanes="2" speed="27.78" allow="private emergency authority army vip passenger hov taxi bus coach delivery truck trailer motorcycle evehicle custom1 custom2" oneway="1"/>
    <type id="highway.motorway_link" priority="9" numLanes="1" speed="16.67" allow="private emergency authority army vip passenger hov taxi bus coach delivery truck trailer motorcycle evehicle custom1 custom2" oneway="1"/>
    <type id="highway.path" priority="1" numLanes="1" speed="2.78" allow="pedestrian bicycle" oneway="1" width="2.00"/>
    <type id="highway.pedestrian" priority="1" numLanes="1" speed="2.78" allow="pedestrian" oneway="1" width="2.00"/>
    <type id="highway.primary" priority="12" numLanes="2" speed="13.89" disallow="pedestrian tram rail_urban rail rail_electric rail_fast ship" oneway="0" sidewalkWidth="3.00"/>
    <type id="highway.primary_link" priority="7" numLanes="1" speed="13.89" disallow="pedestrian tram rail_urban rail rail_electric rail_fast ship" oneway="0" sidewalkWidth="3.00"/>
    <type id="highway.raceway" priority="15" numLanes="2" speed="83.33" allow="vip" oneway="0"/>
    <type id="highway.residential" priority="3" numLanes="1" speed="13.89" disallow="pedestrian tram rail_urban rail rail_electric rail_fast ship" oneway="0" sidewalkWidth="2.00"/>
    <type id="highway.secondary" priority="11" numLanes="1" speed="13.89" disallow="pedestrian tram rail_urban rail rail_electric rail_fast ship" oneway="0" sidewalkWidth="3.00"/>
    <type id="highway.secondary_link" priority="6" numLanes="1" speed="13.89" disallow="pedestrian tram rail_urban rail rail_electric rail_fast ship" oneway="0" sidewalkWidth="3.00"/>
    <type id="highway.service" priority="1" numLanes="1" speed="5.56" allow="pedestrian delivery bicycle" oneway="0"/>
    <type id="highway.stairs" priority="1" numLanes="1" speed="1.39" allow="pedestrian" oneway="1" width="2.00"/>
    <type id="highway.step" priority="1" numLanes="1" speed="1.39" allow="pedestrian" oneway="1" width="2.00"/>
    <type id="highway.steps" priority="1" numLanes="1" speed="1.39" allow="pedestrian" oneway="1" width="2.00"/>
    <type id="highway.tertiary" priority="10" numLanes="1" speed="13.89" disallow="pedestrian tram rail_urban rail rail_electric rail_fast ship" oneway="0" sidewalkWidth="3.00"/>
    <type id="highway.tertiary_link" priority="5" numLanes="1" speed="13.89" disallow="pedestrian tram rail_urban rail rail_electric rail_fast ship" oneway="0" sidewalkWidth="2.00"/>
    <type id="highway.track" priority="1" numLanes="1" speed="5.56" disallow="tram rail_urban rail rail_electric rail_fast ship" oneway="0"/>
    <type id="highway.trunk" priority="13" numLanes="2" speed="13.89" disallow="pedestrian bicycle tram rail_urban rail rail_electric rail_fast ship" oneway="0"/>
    <type id="highway.trunk_link" priority="8" numLanes="1" speed="13.89" disallow="pedestrian bicycle tram rail_urban rail rail_electric rail_fast ship" oneway="0"/>
    <type id="highway.unclassified" priority="4" numLanes="1" speed="13.89" disallow="pedestrian tram rail_urban rail rail_electric rail_fast ship" oneway="0" sidewalkWidth="2.00"/>
    <type id="highway.unsurfaced" priority="1" numLanes="1" speed="8.33" disallow="tram rail_urban rail rail_electric rail_fast ship" oneway="0"/>
    <type id="railway.highspeed" priority="21" numLanes="1" speed="69.44" allow="rail_fast" oneway="1"/>
    <type id="railway.light_rail" priority="19" numLanes="1" speed="27.78" allow="rail_urban" oneway="1"/>
    <type id="railway.preserved" priority="16" numLanes="1" speed="27.78" allow="rail" oneway="1"/>
    <type id="railway.rail" priority="20" numLanes="1" speed="44.44" allow="rail" oneway="1"/>
    <type id="railway.subway" priority="18" numLanes="1" speed="27.78" allow="rail_urban" oneway="1"/>
    <type id="railway.tram" priority="17" numLanes="1" speed="13.89" allow="tram" oneway="1"/>

    <edge id=":1012196238_0" function="internal">
        <lane id=":1012196238_0_0" index="0" disallow="pedestrian tram rail_urban rail rail_electric rail_fast ship" speed="13.89" length="5.00" shape="649.50,629.90 651.26,634.59"/>
    </edge>
    <edge id=":1012196576_0" function="internal">
        <lane id=":1012196576_0_0" index="0" disallow="pedestrian tram rail_urban rail rail_electric rail_fast ship" speed="13.89" length="5.03" shape="530.26,666.11 528.54,661.39"/>
    </edge>
    <edge id=":1065961861_0" function="internal">
        <lane id=":1065961861_0_0" index="0" disallow="pedestrian tram rail_urban rail rail_electric rail_fast ship" speed="8.33" length="3.93" shape="320.38,448.73 319.25,448.92 318.50,449.20 317.78,449.57 316.70,450.02"/>
    </edge>
    <edge id=":1065961861_1" function="internal">
        <lane id=":1065961861_1_0" index="0" disallow="pedestrian tram rail_urban rail rail_electric rail_fast ship" speed="4.83" length="7.96" shape="320.38,448.73 317.85,448.73 316.87,448.08 317.42,446.79 319.50,444.85"/>
    </edge>
    <edge id=":1065961861_2" function="internal">
        <lane id=":1065961861_2_0" index="0" disallow="pedestrian tram rail_urban rail rail_electric rail_fast ship" speed="8.33" length="4.48" shape="315.62,447.01 316.86,446.55 317.69,446.17 318.45,445.66 319.50,444.85"/>
    </edge>
    <edge id=":1065961861_3" function="internal">
        <lane id=":1065961861_3_0" index="0" disallow="pedestrian tram rail_urban rail rail_electric rail_fast ship" speed="3.65" length="4.67" shape="315.62,447.01 317.02,447.36 317.66,447.97 317.56,448.86 316.70,450.02"/>
    </edge>
    <edge id=":1132622212_0" function="internal">
        <lane id=":1132622212_0_0" index="0" allow="pedestrian delivery bicycle" speed="6.65" length="7.80" shape="400.61,504.66 399.86,503.89 398.37,503.48 396.16,503.44 393.21,503.77"/>
    </edge>
    <edge id=":1132622212_1" function="internal">
        <lane id=":1132622212_1_0" index="0" disallow="pedestrian tram rail_urban rail rail_electric rail_fast ship" speed="11.11" length="6.59" shape="400.61,504.66 397.97,498.69"/>
        <lane id=":1132622212_1_1" index="1" disallow="pedestrian tram rail_urban rail rail_electric rail_fast ship" speed="11.11" length="6.59" shape="403.58,503.46 400.88,497.37"/>
    </edge>
    <edge id=":1163001926_0" function="internal">
        <lane id=":1163001926_0_0" index="0" disallow="pedestrian tram rail_urban rail rail_electric rail_fast ship" speed="8.33" length="0.29" shape="251.97,462.21 251.68,462.25"/>
    </edge>
    <edge id=":1163001926_1" function="internal">
        <lane id=":1163001926_1_0" index="0" disallow="pedestrian tram rail_urban rail rail_electric rail_fast ship" speed="3.65" length="2.34" shape="251.97,462.21 250.67,461.57 250.17,460.83"/>
    </edge>
    <edge id=":1163001926_4" function="internal">
        <lane id=":1163001926_4_0" index="0" disallow="pedestrian tram rail_urban rail rail_electric rail_fast ship" speed="3.65" length="2.34" shape="250.17,460.83 250.46,459.99 251.55,459.03"/>
    </edge>
    <edge id=":1163001926_2" function="internal">
        <lane id=":1163001926_2_0" index="0" disallow="pedestrian tram rail_urban rail rail_electric rail_fast ship" speed="8.33" length="0.31" shape="251.24,459.08 251.55,459.03"/>
    </edge>
    <edge id=":1163001926_3" function="internal">
        <lane id=":1163001926_3_0" index="0" disallow="pedestrian tram rail_urban rail rail_electric rail_fast ship" speed="3.65" length="2.34" shape="251.24,459.08 252.54,459.70 253.05,460.44"/>
    </edge>
    <edge id=":1163001926_5" function="internal">
        <lane id=":1163001926_5_0" index="0" disallow="pedestrian tram rail_urban rail rail_electric rail_fast ship" speed="3.65" length="2.34" shape="253.05,460.44 252.76,461.29 251.68,462.25"/>
    </edge>
    <edge id=":1165301869_0" function="internal">
        <lane id=":1165301869_0_0" index="0" allow="pedestrian delivery bicycle" speed="3.65" length="4.67" shape="584.97,143.23 586.32,142.72 587.20,142.86 587.62,143.65 587.57,145.09"/>
    </edge>
    <edge id=":1165301917_0" function="internal">
        <lane id=":1165301917_0_0" index="0" disallow="pedestrian tram rail_urban rail rail_electric rail_fast ship" speed="8.28" length="32.51" shape="557.61,186.71 550.53,196.87 548.47,200.70 551.43,198.19 559.41,189.36"/>
    </edge>
    <edge id=":1165301917_1" function="internal">
        <lane id=":1165301917_1_0" index="0" allow="pedestrian delivery bicycle" speed="3.65" length="4.68" shape="557.61,186.71 556.23,187.13 555.35,186.94 554.99,186.12 555.13,184.68"/>
    </edge>
    <edge id=":1165301917_2" function="internal">
        <lane id=":1165301917_2_0" index="0" allow="pedestrian delivery bicycle" speed="9.72" length="31.93" shape="539.35,212.31 545.60,203.82 549.87,195.80 552.83,189.13 555.13,184.68"/>
    </edge>
    <edge id=":1165301917_3" function="internal">
        <lane id=":1165301917_3_0" index="0" disallow="pedestrian tram rail_urban rail rail_electric rail_fast ship" speed="13.89" length="30.07" shape="539.35,212.31 559.41,189.36"/>
        <lane id=":1165301917_3_1" index="1" disallow="pedestrian tram rail_urban rail rail_electric rail_fast ship" speed="13.89" length="30.07" shape="541.75,214.42 561.27,192.09"/>
    </edge>
    <edge id=":1217727855_0" function="internal">
        <lane id=":1217727855_0_0" index="0" disallow="pedestrian tram rail_urban rail rail_electric rail_fast ship" speed="13.89" length="8.57" shape="339.44,392.67 338.44,390.34 337.59,388.83 336.59,387.39 335.18,385.27"/>
    </edge>
    <edge id=":1217727855_1" function="internal">
        <lane id=":1217727855_1_0" index="0" disallow="pedestrian tram rail_urban rail rail_electric rail_fast ship" speed="13.89" length="4.97" shape="337.87,383.55 338.68,384.78 339.33,385.57 340.10,386.22 341.30,387.07"/>
    </edge>
    <edge id=":1217727855_2" function="internal">
        <lane id=":1217727855_2_0" index="0" disallow="pedestrian tram rail_urban rail rail_electric rail_fast ship" speed="3.65" length="2.34" shape="337.87,383.55 337.84,385.00 337.39,385.76"/>
    </edge>
    <edge id=":1217727855_3" function="internal">
        <lane id=":1217727855_3_0" index="0" disallow="pedestrian tram rail_urban rail rail_electric rail_fast ship" speed="3.65" length="2.34" shape="337.39,385.76 336.50,385.86 335.18,385.27"/>
    </edge>
    <edge id=":1217727951_0" function="internal">
        <lane id=":1217727951_0_0" index="0" disallow="pedestrian tram rail_urban rail rail_electric rail_fast ship" speed="9.95" length="12.19" shape="351.36,391.45 354.92,392.34 358.06,392.53 360.78,392.01 363.07,390.78"/>
    </edge>
    <edge id=":1217727951_1" function="internal">
        <lane id=":1217727951_1_0" index="0" disallow="pedestrian tram rail_urban rail rail_electric rail_fast ship" speed="13.89" length="11.10" shape="354.54,398.03 363.07,390.78"/>
        <lane id=":1217727951_1_1" index="1" disallow="pedestrian tram rail_urban rail rail_electric rail_fast ship" speed="13.89" length="11.10" shape="356.63,400.45 365.01,393.32"/>
    </edge>
    <edge id=":1431457666_0" function="internal">
        <lane id=":1431457666_0_0" index="0" disallow="pedestrian tram rail_urban rail rail_electric rail_fast ship" speed="3.65" length="4.67" shape="385.84,132.91 386.62,131.69 387.41,131.28 388.22,131.67 389.04,132.85"/>
    </edge>
    <edge id=":1431457817_0" function="internal">
        <lane id=":1431457817_0_0" index="0" disallow="pedestrian tram rail_urban rail rail_electric rail_fast ship" speed="2.62" length="1.05" shape="371.82,353.57 371.65,353.62 371.70,353.82 371.83,354.12 371.90,354.45"/>
    </edge>
    <edge id=":1431457817_1" function="internal">
        <lane id=":1431457817_1_0" index="0" disallow="pedestrian tram rail_urban rail rail_electric rail_fast ship" speed="4.10" length="3.51" shape="371.82,353.57 370.48,353.34 369.56,353.02 369.05,352.60 368.94,352.10"/>
    </edge>
    <edge id=":1431457817_2" function="internal">
        <lane id=":1431457817_2_0" index="0" disallow="pedestrian tram rail_urban rail rail_electric rail_fast ship" speed="13.89" length="1.78" shape="372.09,352.68 371.99,353.20 371.94,353.56 371.92,353.92 371.90,354.45"/>
    </edge>
    <edge id=":1431457817_3" function="internal">
        <lane id=":1431457817_3_0" index="0" disallow="pedestrian tram rail_urban rail rail_electric rail_fast ship" speed="3.65" length="2.34" shape="372.09,352.68 371.08,353.72 370.22,353.96"/>
    </edge>
    <edge id=":1431457817_6" function="internal">
        <lane id=":1431457817_6_0" index="0" disallow="pedestrian tram rail_urban rail rail_electric rail_fast ship" speed="3.65" length="2.34" shape="370.22,353.96 369.51,353.43 368.94,352.10"/>
    </edge>
    <edge id=":1431457817_4" function="internal">
        <lane id=":1431457817_4_0" index="0" disallow="pedestrian tram rail_urban rail rail_electric rail_fast ship" speed="13.89" length="2.28" shape="368.70,354.36 368.72,353.69 368.76,353.22 368.82,352.76 368.94,352.10"/>
    </edge>
    <edge id=":1431457817_5" function="internal">
        <lane id=":1431457817_5_0" index="0" disallow="pedestrian tram rail_urban rail rail_electric rail_fast ship" speed="3.65" length="2.34" shape="368.70,354.36 369.54,353.18 370.35,352.81"/>
    </edge>
    <edge id=":1431457817_7" function="internal">
        <lane id=":1431457817_7_0" index="0" disallow="pedestrian tram rail_urban rail rail_electric rail_fast ship" speed="3.65" length="2.34" shape="370.35,352.81 371.13,353.23 371.90,354.45"/>
    </edge>
    <edge id=":1431457827_0" function="internal">
        <lane id=":1431457827_0_0" index="0" disallow="pedestrian tram rail_urban rail rail_electric rail_fast ship" speed="10.35" length="6.37" shape="371.58,366.30 371.59,368.17 371.84,369.45 372.42,370.63 373.43,372.22"/>
    </edge>
    <edge id=":1431457827_1" function="internal">
        <lane id=":1431457827_1_0" index="0" disallow="pedestrian tram rail_urban rail rail_electric rail_fast ship" speed="3.65" length="2.14" shape="371.58,366.30 370.74,367.48 370.11,367.77"/>
    </edge>
    <edge id=":1431457827_3" function="internal">
        <lane id=":1431457827_3_0" index="0" disallow="pedestrian tram rail_urban rail rail_electric rail_fast ship" speed="3.65" length="2.54" shape="370.11,367.77 369.93,367.86 369.14,367.44 368.38,366.22"/>
    </edge>
    <edge id=":1431457827_2" function="internal">
        <lane id=":1431457827_2_0" index="0" disallow="pedestrian tram rail_urban rail rail_electric rail_fast ship" speed="13.89" length="7.17" shape="369.59,373.23 369.47,371.14 369.02,369.73 368.55,368.31 368.38,366.22"/>
    </edge>
    <edge id=":1431457835_0" function="internal">
        <lane id=":1431457835_0_0" index="0" disallow="pedestrian tram rail_urban rail rail_electric rail_fast ship" speed="8.34" length="7.89" shape="393.73,371.12 401.46,372.69"/>
    </edge>
    <edge id=":1431457835_1" function="internal">
        <lane id=":1431457835_1_0" index="0" allow="pedestrian bicycle" speed="2.78" length="10.05" width="2.00" shape="393.73,371.12 395.31,371.71 397.96,373.47 400.59,375.41 402.12,376.57"/>
    </edge>
    <edge id=":1431457835_2" function="internal">
        <lane id=":1431457835_2_0" index="0" disallow="pedestrian tram rail_urban rail rail_electric rail_fast ship" speed="13.89" length="5.42" shape="397.35,376.22 398.62,375.23 399.47,374.53 400.29,373.79 401.46,372.69"/>
    </edge>
    <edge id=":1431457835_3" function="internal">
        <lane id=":1431457835_3_0" index="0" allow="pedestrian bicycle" speed="5.70" length="5.14" width="2.00" shape="397.35,376.22 398.41,375.66 399.55,375.52 400.79,375.83 402.12,376.57"/>
    </edge>
    <edge id=":1431457838_0" function="internal">
        <lane id=":1431457838_0_0" index="0" disallow="pedestrian tram rail_urban rail rail_electric rail_fast ship" speed="3.65" length="4.67" shape="868.23,371.80 869.55,372.39 870.08,373.11 869.82,373.97 868.77,374.96"/>
    </edge>
    <edge id=":1431457871_0" function="internal">
        <lane id=":1431457871_0_0" index="0" allow="pedestrian delivery bicycle" speed="6.95" length="10.57" shape="552.78,412.39 551.31,412.05 550.05,410.48 549.02,407.70 548.21,403.70"/>
    </edge>
    <edge id=":1431457871_1" function="internal">
        <lane id=":1431457871_1_0" index="0" disallow="pedestrian tram rail_urban rail rail_electric rail_fast ship" speed="3.65" length="4.67" shape="552.78,412.39 551.47,411.80 550.94,411.08 551.20,410.22 552.25,409.24"/>
    </edge>
    <edge id=":1431457871_2" function="internal">
        <lane id=":1431457871_2_0" index="0" allow="pedestrian delivery bicycle" speed="6.12" length="7.52" shape="546.35,410.34 547.51,409.71 548.21,408.39 548.44,406.39 548.21,403.70"/>
    </edge>
    <edge id=":1431457871_3" function="internal">
        <lane id=":1431457871_3_0" index="0" disallow="pedestrian tram rail_urban rail rail_electric rail_fast ship" speed="8.33" length="6.00" shape="546.35,410.34 552.25,409.24"/>
    </edge>
    <edge id=":1431457883_0" function="internal">
        <lane id=":1431457883_0_0" index="0" disallow="pedestrian tram rail_urban rail rail_electric rail_fast ship" speed="13.89" length="4.44" shape="437.13,427.15 438.31,427.17 439.08,426.61 439.87,425.94 441.10,425.64"/>
    </edge>
    <edge id=":1559166755_0" function="internal">
        <lane id=":1559166755_0_0" index="0" disallow="pedestrian tram rail_urban rail rail_electric rail_fast ship" speed="13.89" length="33.08" shape="392.69,271.18 395.05,304.18"/>
    </edge>
    <edge id=":1559166755_1" function="internal">
        <lane id=":1559166755_1_0" index="0" disallow="pedestrian tram rail_urban rail rail_electric rail_fast ship" speed="13.89" length="33.57" shape="392.69,271.18 392.56,279.24 391.76,287.94 390.32,296.54 388.26,304.32"/>
    </edge>
    <edge id=":1559166755_2" function="internal">
        <lane id=":1559166755_2_0" index="0" disallow="pedestrian tram rail_urban rail rail_electric rail_fast ship" speed="3.65" length="2.34" shape="392.69,271.18 391.93,272.40 391.14,272.82"/>
    </edge>
    <edge id=":1559166755_6" function="internal">
        <lane id=":1559166755_6_0" index="0" disallow="pedestrian tram rail_urban rail rail_electric rail_fast ship" speed="3.65" length="2.34" shape="391.14,272.82 390.33,272.45 389.50,271.27"/>
    </edge>
    <edge id=":1559166755_3" function="internal">
        <lane id=":1559166755_3_0" index="0" disallow="pedestrian tram rail_urban rail rail_electric rail_fast ship" speed="13.89" length="33.21" shape="384.98,304.04 387.05,296.32 388.52,287.84 389.35,279.27 389.50,271.27"/>
    </edge>
    <edge id=":1559166755_4" function="internal">
        <lane id=":1559166755_4_0" index="0" disallow="pedestrian tram rail_urban rail rail_electric rail_fast ship" speed="5.87" length="4.00" shape="384.98,304.04 387.29,301.04 387.49,300.98"/>
    </edge>
    <edge id=":1559166755_5" function="internal">
        <lane id=":1559166755_5_0" index="0" disallow="pedestrian tram rail_urban rail rail_electric rail_fast ship" speed="3.68" length="2.72" shape="384.98,304.04 385.90,302.88 386.76,302.54 387.03,302.71"/>
    </edge>
    <edge id=":1559166755_7" function="internal">
        <lane id=":1559166755_7_0" index="0" disallow="pedestrian tram rail_urban rail rail_electric rail_fast ship" speed="5.87" length="9.93" shape="387.49,300.98 390.66,300.02 393.70,301.05 395.05,304.18"/>
    </edge>
    <edge id=":1559166755_8" function="internal">
        <lane id=":1559166755_8_0" index="0" disallow="pedestrian tram rail_urban rail rail_electric rail_fast ship" speed="3.68" length="2.08" shape="387.03,302.71 387.54,303.02 388.26,304.32"/>
    </edge>
    <edge id=":1559166771_0" function="internal">
        <lane id=":1559166771_0_0" index="0" disallow="pedestrian tram rail_urban rail rail_electric rail_fast ship" speed="13.89" length="65.92" shape="414.42,348.82 424.29,342.13 437.25,328.72 450.24,313.61 460.22,301.84"/>
    </edge>
    <edge id=":1559166771_1" function="internal">
        <lane id=":1559166771_1_0" index="0" disallow="pedestrian tram rail_urban rail rail_electric rail_fast ship" speed="13.89" length="65.28" shape="420.35,353.72 462.61,303.96"/>
    </edge>
    <edge id=":1559166778_0" function="internal">
        <lane id=":1559166778_0_0" index="0" disallow="pedestrian tram rail_urban rail rail_electric rail_fast ship" speed="13.89" length="5.00" shape="395.10,309.52 395.14,314.53"/>
    </edge>
    <edge id=":1559166778_1" function="internal">
        <lane id=":1559166778_1_0" index="0" allow="pedestrian bicycle" speed="8.34" length="3.79" width="2.00" shape="395.10,309.52 392.33,312.11"/>
    </edge>
    <edge id=":1559166820_0" function="internal">
        <lane id=":1559166820_0_0" index="0" allow="pedestrian bicycle" speed="2.78" length="4.86" width="2.00" shape="376.18,351.63 375.93,353.05 375.79,354.03 375.71,355.01 375.65,356.45"/>
    </edge>
    <edge id=":1559166820_1" function="internal">
        <lane id=":1559166820_1_0" index="0" allow="pedestrian bicycle" speed="2.78" length="4.00" width="2.00" shape="376.18,351.63 375.84,352.66 375.25,353.36 374.41,353.72 373.33,353.74"/>
    </edge>
    <edge id=":1559166827_0" function="internal">
        <lane id=":1559166827_0_0" index="0" disallow="pedestrian tram rail_urban rail rail_electric rail_fast ship" speed="12.08" length="8.95" shape="389.43,380.25 391.99,379.93 393.65,379.22 395.14,378.05 397.20,376.35"/>
    </edge>
    <edge id=":1559166827_1" function="internal">
        <lane id=":1559166827_1_0" index="0" disallow="pedestrian tram rail_urban rail rail_electric rail_fast ship" speed="13.89" length="9.05" shape="389.43,380.25 392.21,380.31 394.09,380.76 395.93,381.47 398.64,382.32"/>
        <lane id=":1559166827_1_1" index="1" disallow="pedestrian tram rail_urban rail rail_electric rail_fast ship" speed="13.89" length="9.05" shape="389.59,383.45 392.09,383.52 393.77,383.96 395.42,384.64 397.85,385.42"/>
    </edge>
    <edge id=":1559166828_0" function="internal">
        <lane id=":1559166828_0_0" index="0" disallow="pedestrian tram rail_urban rail rail_electric rail_fast ship" speed="9.73" length="9.90" shape="375.94,375.81 378.20,377.94 380.36,379.44 382.41,380.30 384.35,380.52"/>
    </edge>
    <edge id=":1559166828_1" function="internal">
        <lane id=":1559166828_1_0" index="0" disallow="pedestrian tram rail_urban rail rail_electric rail_fast ship" speed="13.89" length="8.19" shape="376.07,382.89 378.46,381.92 380.11,381.22 381.81,380.77 384.35,380.52"/>
        <lane id=":1559166828_1_1" index="1" disallow="pedestrian tram rail_urban rail rail_electric rail_fast ship" speed="13.89" length="8.19" shape="377.20,385.89 379.31,385.01 380.77,384.37 382.26,383.95 384.51,383.71"/>
    </edge>
    <edge id=":1559166850_0" function="internal">
        <lane id=":1559166850_0_0" index="0" disallow="pedestrian tram rail_urban rail rail_electric rail_fast ship" speed="8.42" length="7.08" shape="428.03,408.49 423.96,412.61"/>
        <lane id=":1559166850_0_1" index="1" disallow="pedestrian tram rail_urban rail rail_electric rail_fast ship" speed="10.02" length="7.08" shape="425.60,406.41 423.74,408.11 422.16,409.20 421.10,410.48 420.76,412.71"/>
    </edge>
    <edge id=":1559166850_2" function="internal">
        <lane id=":1559166850_2_0" index="0" disallow="pedestrian tram rail_urban rail rail_electric rail_fast ship" speed="13.89" length="2.02" shape="423.22,410.24 423.50,410.93 423.73,411.40 423.88,411.88 423.96,412.61"/>
        <lane id=":1559166850_2_1" index="1" disallow="pedestrian tram rail_urban rail rail_electric rail_fast ship" speed="13.89" length="2.02" shape="420.20,411.29 420.39,411.71 420.56,411.99 420.70,412.27 420.76,412.71"/>
    </edge>
    <edge id=":1559166851_0" function="internal">
        <lane id=":1559166851_0_0" index="0" disallow="pedestrian tram rail_urban rail rail_electric rail_fast ship" speed="13.89" length="20.01" shape="338.43,420.82 340.70,415.38 341.71,411.42 341.76,407.30 341.15,401.42"/>
    </edge>
    <edge id=":1559166851_1" function="internal">
        <lane id=":1559166851_1_0" index="0" disallow="pedestrian tram rail_urban rail rail_electric rail_fast ship" speed="13.89" length="19.04" shape="338.43,420.82 341.02,415.74 343.29,412.55 345.86,409.52 349.30,404.92"/>
        <lane id=":1559166851_1_1" index="1" disallow="pedestrian tram rail_urban rail rail_electric rail_fast ship" speed="13.89" length="19.04" shape="341.35,422.12 343.87,417.20 346.09,414.12 348.59,411.19 351.94,406.73"/>
    </edge>
    <edge id=":1559166852_0" function="internal">
        <lane id=":1559166852_0_0" index="0" disallow="pedestrian tram rail_urban rail rail_electric rail_fast ship" speed="10.06" length="9.69" shape="424.08,416.19 424.44,418.05 425.40,420.00 426.97,422.05 429.13,424.19"/>
    </edge>
    <edge id=":1559166852_1" function="internal">
        <lane id=":1559166852_1_0" index="0" disallow="pedestrian tram rail_urban rail rail_electric rail_fast ship" speed="13.89" length="7.75" shape="424.08,416.19 424.03,418.64 423.68,420.30 423.04,421.91 422.11,424.22"/>
        <lane id=":1559166852_1_1" index="1" disallow="pedestrian tram rail_urban rail rail_electric rail_fast ship" speed="13.89" length="7.75" shape="420.88,416.30 420.82,418.38 420.49,419.79 419.91,421.15 419.11,423.11"/>
    </edge>
    <edge id=":1559166854_0" function="internal">
        <lane id=":1559166854_0_0" index="0" disallow="pedestrian tram rail_urban rail rail_electric rail_fast ship" speed="11.11" length="21.82" shape="321.74,443.07 326.62,439.29 330.04,436.29 332.82,432.62 335.75,426.82"/>
    </edge>
    <edge id=":1559166854_1" function="internal">
        <lane id=":1559166854_1_0" index="0" disallow="pedestrian tram rail_urban rail rail_electric rail_fast ship" speed="13.89" length="18.10" shape="330.43,444.62 331.11,439.13 332.01,435.43 333.45,431.88 335.75,426.82"/>
        <lane id=":1559166854_1_1" index="1" disallow="pedestrian tram rail_urban rail rail_electric rail_fast ship" speed="13.89" length="18.10" shape="333.32,444.68 334.38,439.61 335.30,436.18 336.58,432.86 338.67,428.12"/>
    </edge>
    <edge id=":1559166863_0" function="internal">
        <lane id=":1559166863_0_0" index="0" disallow="pedestrian tram rail_urban rail rail_electric rail_fast ship" speed="12.50" length="17.51" shape="409.85,449.85 407.63,454.35 407.11,457.84 407.64,461.54 408.57,466.68"/>
    </edge>
    <edge id=":1559166863_1" function="internal">
        <lane id=":1559166863_1_0" index="0" disallow="pedestrian tram rail_urban rail rail_electric rail_fast ship" speed="12.50" length="17.96" shape="409.85,449.85 407.06,454.38 405.43,457.78 404.87,461.39 405.33,466.59"/>
    </edge>
    <edge id=":1559166863_2" function="internal">
        <lane id=":1559166863_2_0" index="0" disallow="pedestrian tram rail_urban rail rail_electric rail_fast ship" speed="13.89" length="17.28" shape="409.85,449.85 407.08,454.22 404.94,457.05 402.48,459.63 398.76,463.24"/>
        <lane id=":1559166863_2_1" index="1" disallow="pedestrian tram rail_urban rail rail_electric rail_fast ship" speed="13.89" length="17.28" shape="407.12,448.19 404.40,452.46 402.29,455.21 399.87,457.72 396.22,461.25"/>
    </edge>
    <edge id=":1559166866_0" function="internal">
        <lane id=":1559166866_0_0" index="0" disallow="pedestrian tram rail_urban rail rail_electric rail_fast ship" speed="10.41" length="17.09" shape="333.43,458.54 330.45,453.98 327.32,450.82 324.03,449.06 320.58,448.71"/>
    </edge>
    <edge id=":1559166866_1" function="internal">
        <lane id=":1559166866_1_0" index="0" disallow="pedestrian tram rail_urban rail rail_electric rail_fast ship" speed="13.89" length="13.68" shape="333.43,458.54 331.43,454.78 330.39,451.99 330.11,449.05 330.41,444.82"/>