<?xml version="1.0" encoding="UTF-8"?>

<!-- generated on 01/21/20 17:38:40 by Eclipse SUMO netconvert Version 1.3.1
<configuration xmlns:xsi="http://www.w3.org/2001/XMLSchema-instance" xsi:noNamespaceSchemaLocation="http://sumo.dlr.de/xsd/netconvertConfiguration.xsd">

    <input>
        <sumo-net-file value="anchieta_21012020.net.xml"/>
    </input>

    <processing>
        <geometry.max-grade.fix value="false"/>
        <offset.disable-normalization value="true"/>
        <opposites.guess.fix-lengths value="true"/>
        <lefthand value="false"/>
    </processing>

    <junctions>
        <no-turnarounds value="true"/>
        <junctions.corner-detail value="5"/>
        <junctions.limit-turn-speed value="5.5"/>
        <rectangular-lane-cut value="false"/>
    </junctions>

    <pedestrian>
        <walkingareas value="false"/>
    </pedestrian>

</configuration>
-->

<net version="1.3" junctionCornerDetail="5" limitTurnSpeed="5.50" xmlns:xsi="http://www.w3.org/2001/XMLSchema-instance" xsi:noNamespaceSchemaLocation="http://sumo.dlr.de/xsd/net_file.xsd">

    <location netOffset="-370432.77,-3148944.54" convBoundary="0.00,0.00,2985.99,2912.46" origBoundary="-16.323566,28.460932,-16.292892,28.487001" projParameter="+proj=utm +zone=28 +ellps=WGS84 +datum=WGS84 +units=m +no_defs"/>

    <type id="highway.bridleway" priority="1" numLanes="1" speed="2.78" allow="pedestrian" oneway="1" width="2.00"/>
    <type id="highway.bus_guideway" priority="1" numLanes="1" speed="13.89" allow="bus" oneway="1"/>
    <type id="highway.cycleway" priority="1" numLanes="1" speed="8.33" allow="bicycle" oneway="0" width="1.00"/>
    <type id="highway.footway" priority="1" numLanes="1" speed="2.78" allow="pedestrian" oneway="1" width="2.00"/>
    <type id="highway.ford" priority="1" numLanes="1" speed="2.78" allow="army" oneway="0"/>
    <type id="highway.living_street" priority="2" numLanes="1" speed="2.78" disallow="tram rail_urban rail rail_electric rail_fast ship" oneway="0"/>
    <type id="highway.motorway" priority="14" numLanes="2" speed="27.78" allow="private emergency authority army vip passenger hov taxi bus coach delivery truck trailer motorcycle evehicle custom1 custom2" oneway="1"/>
    <type id="highway.motorway_link" priority="9" numLanes="1" speed="16.67" allow="private emergency authority army vip passenger hov taxi bus coach delivery truck trailer motorcycle evehicle custom1 custom2" oneway="1"/>
    <type id="highway.path" priority="1" numLanes="1" speed="2.78" allow="pedestrian bicycle" oneway="1" width="2.00"/>
    <type id="highway.pedestrian" priority="1" numLanes="1" speed="2.78" allow="pedestrian" oneway="1" width="2.00"/>
    <type id="highway.primary" priority="12" numLanes="2" speed="13.89" disallow="pedestrian tram rail_urban rail rail_electric rail_fast ship" oneway="0" sidewalkWidth="3.00"/>
    <type id="highway.primary_link" priority="7" numLanes="1" speed="13.89" disallow="pedestrian tram rail_urban rail rail_electric rail_fast ship" oneway="0" sidewalkWidth="3.00"/>
    <type id="highway.raceway" priority="15" numLanes="2" speed="83.33" allow="vip" oneway="0"/>
    <type id="highway.residential" priority="3" numLanes="1" speed="13.89" disallow="pedestrian tram rail_urban rail rail_electric rail_fast ship" oneway="0" sidewalkWidth="2.00"/>
    <type id="highway.secondary" priority="11" numLanes="1" speed="13.89" disallow="pedestrian tram rail_urban rail rail_electric rail_fast ship" oneway="0" sidewalkWidth="3.00"/>
    <type id="highway.secondary_link" priority="6" numLanes="1" speed="13.89" disallow="pedestrian tram rail_urban rail rail_electric rail_fast ship" oneway="0" sidewalkWidth="3.00"/>
    <type id="highway.service" priority="1" numLanes="1" speed="5.56" allow="pedestrian delivery bicycle" oneway="0"/>
    <type id="highway.stairs" priority="1" numLanes="1" speed="1.39" allow="pedestrian" oneway="1" width="2.00"/>
    <type id="highway.step" priority="1" numLanes="1" speed="1.39" allow="pedestrian" oneway="1" width="2.00"/>
    <type id="highway.steps" priority="1" numLanes="1" speed="1.39" allow="pedestrian" oneway="1" width="2.00"/>
    <type id="highway.tertiary" priority="10" numLanes="1" speed="13.89" disallow="pedestrian tram rail_urban rail rail_electric rail_fast ship" oneway="0" sidewalkWidth="3.00"/>
    <type id="highway.tertiary_link" priority="5" numLanes="1" speed="13.89" disallow="pedestrian tram rail_urban rail rail_electric rail_fast ship" oneway="0" sidewalkWidth="2.00"/>
    <type id="highway.track" priority="1" numLanes="1" speed="5.56" disallow="tram rail_urban rail rail_electric rail_fast ship" oneway="0"/>
    <type id="highway.trunk" priority="13" numLanes="2" speed="13.89" disallow="pedestrian bicycle tram rail_urban rail rail_electric rail_fast ship" oneway="0"/>
    <type id="highway.trunk_link" priority="8" numLanes="1" speed="13.89" disallow="pedestrian bicycle tram rail_urban rail rail_electric rail_fast ship" oneway="0"/>
    <type id="highway.unclassified" priority="4" numLanes="1" speed="13.89" disallow="pedestrian tram rail_urban rail rail_electric rail_fast ship" oneway="0" sidewalkWidth="2.00"/>
    <type id="highway.unsurfaced" priority="1" numLanes="1" speed="8.33" disallow="tram rail_urban rail rail_electric rail_fast ship" oneway="0"/>
    <type id="railway.highspeed" priority="21" numLanes="1" speed="69.44" allow="rail_fast" oneway="1"/>
    <type id="railway.light_rail" priority="19" numLanes="1" speed="27.78" allow="rail_urban" oneway="1"/>
    <type id="railway.preserved" priority="16" numLanes="1" speed="27.78" allow="rail" oneway="1"/>
    <type id="railway.rail" priority="20" numLanes="1" speed="44.44" allow="rail" oneway="1"/>
    <type id="railway.subway" priority="18" numLanes="1" speed="27.78" allow="rail_urban" oneway="1"/>
    <type id="railway.tram" priority="17" numLanes="1" speed="13.89" allow="tram" oneway="1"/>

    <edge id=":1005902353_0" function="internal">
        <lane id=":1005902353_0_0" index="0" allow="pedestrian delivery bicycle" speed="5.56" length="12.71" shape="244.22,2473.70 244.10,2460.99"/>
    </edge>
    <edge id=":1005902353_1" function="internal">
        <lane id=":1005902353_1_0" index="0" allow="pedestrian delivery bicycle" speed="5.56" length="13.61" shape="244.22,2473.70 244.79,2470.36 246.39,2467.58 248.62,2465.04 251.10,2462.39"/>
    </edge>
    <edge id=":1005902353_2" function="internal">
        <lane id=":1005902353_2_0" index="0" allow="pedestrian delivery bicycle" speed="3.65" length="4.67" shape="244.22,2473.70 244.99,2472.49 245.78,2472.07 246.59,2472.45 247.42,2473.64"/>
    </edge>
    <edge id=":1005902353_3" function="internal">
        <lane id=":1005902353_3_0" index="0" allow="pedestrian delivery bicycle" speed="5.56" length="11.42" shape="253.51,2464.50 251.16,2466.81 249.19,2468.60 247.86,2470.63 247.42,2473.64"/>
    </edge>
    <edge id=":1005902353_4" function="internal">
        <lane id=":1005902353_4_0" index="0" allow="pedestrian delivery bicycle" speed="5.56" length="17.05" shape="253.51,2464.50 249.46,2468.24 246.54,2468.91 244.75,2466.49 244.10,2460.99"/>
    </edge>
    <edge id=":1005902353_5" function="internal">
        <lane id=":1005902353_5_0" index="0" allow="pedestrian delivery bicycle" speed="3.65" length="4.67" shape="253.51,2464.50 252.12,2464.87 251.25,2464.65 250.92,2463.82 251.10,2462.39"/>
    </edge>
    <edge id=":1005902353_6" function="internal">
        <lane id=":1005902353_6_0" index="0" allow="pedestrian delivery bicycle" speed="4.70" length="6.90" shape="247.30,2460.98 247.56,2463.20 248.28,2464.17 249.46,2463.91 251.10,2462.39"/>
    </edge>
    <edge id=":1005902353_7" function="internal">
        <lane id=":1005902353_7_0" index="0" allow="pedestrian delivery bicycle" speed="5.56" length="12.66" shape="247.30,2460.98 247.42,2473.64"/>
    </edge>
    <edge id=":1005902353_8" function="internal">
        <lane id=":1005902353_8_0" index="0" allow="pedestrian delivery bicycle" speed="3.65" length="4.67" shape="247.30,2460.98 246.50,2462.18 245.71,2462.58 244.90,2462.19 244.10,2460.99"/>
    </edge>
    <edge id=":1005902356_0" function="internal">
        <lane id=":1005902356_0_0" index="0" allow="pedestrian delivery bicycle" speed="4.68" length="6.68" shape="259.39,2449.55 259.76,2451.66 260.54,2452.58 261.71,2452.31 263.28,2450.86"/>
    </edge>
    <edge id=":1005902356_1" function="internal">
        <lane id=":1005902356_1_0" index="0" allow="pedestrian delivery bicycle" speed="5.56" length="6.97" shape="259.39,2449.55 260.58,2456.42"/>
    </edge>
    <edge id=":1005902356_2" function="internal">
        <lane id=":1005902356_2_0" index="0" allow="pedestrian delivery bicycle" speed="5.56" length="6.23" shape="258.17,2454.31 259.54,2453.12 260.73,2452.59 261.91,2452.06 263.28,2450.86"/>
    </edge>
    <edge id=":1005902356_3" function="internal">
        <lane id=":1005902356_3_0" index="0" allow="pedestrian delivery bicycle" speed="3.65" length="4.67" shape="258.17,2454.31 259.56,2453.94 260.43,2454.16 260.77,2454.99 260.58,2456.42"/>
    </edge>
    <edge id=":1005902365_0" function="internal">
        <lane id=":1005902365_0_0" index="0" allow="pedestrian delivery bicycle" speed="5.56" length="5.00" shape="244.05,2457.04 244.00,2452.04"/>
    </edge>
    <edge id=":1005902365_1" function="internal">
        <lane id=":1005902365_1_0" index="0" allow="pedestrian delivery bicycle" speed="3.65" length="4.67" shape="244.05,2457.04 244.83,2455.83 245.63,2455.42 246.43,2455.81 247.25,2457.00"/>
    </edge>
    <edge id=":1005902365_2" function="internal">
        <lane id=":1005902365_2_0" index="0" allow="pedestrian delivery bicycle" speed="5.56" length="4.98" shape="247.20,2452.01 247.25,2457.00"/>
    </edge>
    <edge id=":1005902365_3" function="internal">
        <lane id=":1005902365_3_0" index="0" allow="pedestrian delivery bicycle" speed="3.65" length="4.67" shape="247.20,2452.01 246.41,2453.22 245.61,2453.63 244.81,2453.23 244.00,2452.04"/>
    </edge>
    <edge id=":1005902366_0" function="internal">
        <lane id=":1005902366_0_0" index="0" allow="pedestrian delivery bicycle" speed="5.56" length="8.60" shape="272.09,2423.72 270.50,2423.14 268.58,2423.05 266.34,2423.43 263.77,2424.30"/>
    </edge>
    <edge id=":1005902366_1" function="internal">
        <lane id=":1005902366_1_0" index="0" allow="pedestrian delivery bicycle" speed="5.56" length="7.11" shape="272.09,2423.72 270.80,2423.06 268.80,2422.02 266.96,2420.89 266.15,2419.95"/>
    </edge>
    <edge id=":1005902366_2" function="internal">
        <lane id=":1005902366_2_0" index="0" allow="pedestrian delivery bicycle" speed="5.56" length="7.37" shape="269.35,2419.93 269.00,2420.99 267.96,2422.07 266.21,2423.18 263.77,2424.30"/>
    </edge>
    <edge id=":1005902366_3" function="internal">
        <lane id=":1005902366_3_0" index="0" allow="pedestrian delivery bicycle" speed="3.65" length="4.67" shape="269.35,2419.93 268.55,2421.14 267.76,2421.54 266.95,2421.14 266.15,2419.95"/>
    </edge>
    <edge id=":1005902368_0" function="internal">
        <lane id=":1005902368_0_0" index="0" allow="pedestrian delivery bicycle" speed="4.94" length="4.71" shape="243.91,2440.71 243.73,2439.36 243.20,2438.40 242.34,2437.82 241.14,2437.62"/>
    </edge>
    <edge id=":1005902368_1" function="internal">
        <lane id=":1005902368_1_0" index="0" allow="pedestrian delivery bicycle" speed="5.56" length="9.38" shape="243.91,2440.71 243.91,2431.33"/>
    </edge>
    <edge id=":1005902368_2" function="internal">
        <lane id=":1005902368_2_0" index="0" allow="pedestrian delivery bicycle" speed="3.65" length="4.67" shape="243.91,2440.71 244.70,2439.50 245.49,2439.10 246.30,2439.49 247.11,2440.68"/>
    </edge>
    <edge id=":1005902368_3" function="internal">
        <lane id=":1005902368_3_0" index="0" allow="pedestrian delivery bicycle" speed="5.56" length="9.33" shape="247.10,2431.36 247.11,2440.68"/>
    </edge>
    <edge id=":1005902368_4" function="internal">
        <lane id=":1005902368_4_0" index="0" allow="pedestrian delivery bicycle" speed="5.56" length="9.85" shape="247.10,2431.36 246.71,2434.10 245.59,2436.06 243.73,2437.23 241.14,2437.62"/>
    </edge>
    <edge id=":1005902368_5" function="internal">
        <lane id=":1005902368_5_0" index="0" allow="pedestrian delivery bicycle" speed="3.65" length="4.67" shape="247.10,2431.36 246.30,2432.55 245.49,2432.95 244.70,2432.54 243.91,2431.33"/>
    </edge>
    <edge id=":1005902368_6" function="internal">
        <lane id=":1005902368_6_0" index="0" allow="pedestrian delivery bicycle" speed="4.92" length="4.70" shape="241.15,2434.42 242.35,2434.23 243.21,2433.65 243.72,2432.69 243.91,2431.33"/>
    </edge>
    <edge id=":1005902368_7" function="internal">
        <lane id=":1005902368_7_0" index="0" allow="pedestrian delivery bicycle" speed="5.56" length="9.83" shape="241.15,2434.42 243.74,2434.82 245.59,2435.99 246.72,2437.95 247.11,2440.68"/>
    </edge>
    <edge id=":1005902368_8" function="internal">
        <lane id=":1005902368_8_0" index="0" allow="pedestrian delivery bicycle" speed="3.65" length="4.67" shape="241.15,2434.42 242.35,2435.22 242.75,2436.02 242.35,2436.82 241.14,2437.62"/>
    </edge>
    <edge id=":1005902373_0" function="internal">
        <lane id=":1005902373_0_0" index="0" allow="pedestrian delivery bicycle" speed="3.65" length="4.67" shape="252.18,2484.86 253.39,2485.65 253.80,2486.44 253.41,2487.25 252.22,2488.06"/>
    </edge>
    <edge id=":1012196238_0" function="internal">
        <lane id=":1012196238_0_0" index="0" disallow="pedestrian tram rail_urban rail rail_electric rail_fast ship" speed="13.89" length="5.00" shape="782.23,2435.28 783.99,2439.97"/>
    </edge>
    <edge id=":1012196280_0" function="internal">
        <lane id=":1012196280_0_0" index="0" disallow="pedestrian tram rail_urban rail rail_electric rail_fast ship" speed="13.89" length="4.98" shape="788.04,2450.79 789.83,2455.44"/>
    </edge>
    <edge id=":1012196576_0" function="internal">
        <lane id=":1012196576_0_0" index="0" disallow="pedestrian tram rail_urban rail rail_electric rail_fast ship" speed="13.89" length="5.03" shape="662.98,2471.49 661.27,2466.77"/>
    </edge>
    <edge id=":1065961813_0" function="internal">
        <lane id=":1065961813_0_0" index="0" disallow="pedestrian tram rail_urban rail rail_electric rail_fast ship" speed="13.89" length="12.75" shape="679.68,1987.49 678.87,1991.19 678.18,1993.71 677.10,1996.07 675.10,1999.25"/>
    </edge>
    <edge id=":1065961813_1" function="internal">
        <lane id=":1065961813_1_0" index="0" disallow="pedestrian tram rail_urban rail rail_electric rail_fast ship" speed="8.39" length="12.26" shape="672.88,1988.07 675.04,1991.20 676.12,1994.10 676.14,1996.79 675.10,1999.25"/>
    </edge>
    <edge id=":1065961835_0" function="internal">
        <lane id=":1065961835_0_0" index="0" allow="pedestrian delivery bicycle" speed="5.56" length="12.10" shape="404.71,2200.38 400.89,2188.89"/>
    </edge>
    <edge id=":1065961835_1" function="internal">
        <lane id=":1065961835_1_0" index="0" allow="pedestrian delivery bicycle" speed="5.56" length="13.79" shape="404.71,2200.38 403.36,2195.49 403.44,2193.58 404.93,2194.65 407.84,2198.69"/>
    </edge>
    <edge id=":1065961841_0" function="internal">
        <lane id=":1065961841_0_0" index="0" disallow="pedestrian tram rail_urban rail rail_electric rail_fast ship" speed="13.89" length="2.78" shape="257.80,2120.80 256.50,2118.34"/>
    </edge>
    <edge id=":1065961841_1" function="internal">
        <lane id=":1065961841_1_0" index="0" disallow="pedestrian tram rail_urban rail rail_electric rail_fast ship" speed="13.89" length="2.53" shape="259.39,2116.96 260.57,2119.19"/>
    </edge>
    <edge id=":1065961854_0" function="internal">
        <lane id=":1065961854_0_0" index="0" allow="pedestrian delivery bicycle" speed="6.27" length="9.55" shape="220.98,1984.25 220.54,1980.97 220.90,1978.62 222.06,1977.18 224.00,1976.66"/>
    </edge>
    <edge id=":1065961854_1" function="internal">
        <lane id=":1065961854_1_0" index="0" disallow="pedestrian tram rail_urban rail rail_electric rail_fast ship" speed="3.65" length="4.67" shape="220.98,1984.25 221.51,1982.91 222.21,1982.35 223.08,1982.58 224.11,1983.59"/>
    </edge>
    <edge id=":1065961854_2" function="internal">
        <lane id=":1065961854_2_0" index="0" disallow="pedestrian tram rail_urban rail rail_electric rail_fast ship" speed="5.09" length="5.88" shape="227.20,1979.78 225.54,1980.06 224.47,1980.78 223.99,1981.96 224.11,1983.59"/>
    </edge>
    <edge id=":1065961857_0" function="internal">
        <lane id=":1065961857_0_0" index="0" allow="pedestrian delivery bicycle" speed="5.56" length="0.10" shape="363.58,2249.23 363.65,2249.22"/>
    </edge>
    <edge id=":1065961857_1" function="internal">
        <lane id=":1065961857_1_0" index="0" allow="pedestrian delivery bicycle" speed="5.56" length="0.11" shape="362.75,2246.14 362.65,2246.17"/>
    </edge>
    <edge id=":1065961861_0" function="internal">
        <lane id=":1065961861_0_0" index="0" disallow="pedestrian tram rail_urban rail rail_electric rail_fast ship" speed="13.89" length="3.94" shape="453.11,2254.10 451.97,2254.29 451.23,2254.58 450.50,2254.95 449.43,2255.40"/>
    </edge>
    <edge id=":1065961861_1" function="internal">
        <lane id=":1065961861_1_0" index="0" disallow="pedestrian tram rail_urban rail rail_electric rail_fast ship" speed="4.83" length="3.50" shape="453.11,2254.10 450.59,2254.10 449.77,2253.57"/>
    </edge>
    <edge id=":1065961861_4" function="internal">
        <lane id=":1065961861_4_0" index="0" disallow="pedestrian tram rail_urban rail rail_electric rail_fast ship" speed="4.83" length="4.45" shape="449.77,2253.57 449.60,2253.46 450.15,2252.17 452.23,2250.23"/>
    </edge>
    <edge id=":1065961861_2" function="internal">
        <lane id=":1065961861_2_0" index="0" disallow="pedestrian tram rail_urban rail rail_electric rail_fast ship" speed="13.89" length="4.48" shape="448.34,2252.39 449.59,2251.93 450.42,2251.55 451.18,2251.04 452.23,2250.23"/>
    </edge>
    <edge id=":1065961861_3" function="internal">
        <lane id=":1065961861_3_0" index="0" disallow="pedestrian tram rail_urban rail rail_electric rail_fast ship" speed="3.65" length="2.20" shape="448.34,2252.39 449.74,2252.74 450.29,2253.26"/>
    </edge>
    <edge id=":1065961861_5" function="internal">
        <lane id=":1065961861_5_0" index="0" disallow="pedestrian tram rail_urban rail rail_electric rail_fast ship" speed="3.65" length="2.47" shape="450.29,2253.26 450.39,2253.36 450.28,2254.25 449.43,2255.40"/>
    </edge>
    <edge id=":1065961865_0" function="internal">
        <lane id=":1065961865_0_0" index="0" allow="pedestrian delivery bicycle" speed="5.56" length="7.45" shape="443.60,2220.40 442.97,2222.52 442.52,2223.97 441.94,2225.37 440.89,2227.31"/>
    </edge>
    <edge id=":1065961865_1" function="internal">
        <lane id=":1065961865_1_0" index="0" allow="pedestrian delivery bicycle" speed="5.56" length="6.82" shape="439.48,2220.91 440.56,2222.91 441.15,2224.65 441.26,2226.11 440.89,2227.31"/>
    </edge>
    <edge id=":1065961871_0" function="internal">
        <lane id=":1065961871_0_0" index="0" allow="pedestrian delivery bicycle" speed="5.56" length="6.05" shape="396.02,2155.74 397.68,2155.06 398.80,2154.56 399.90,2154.01 401.48,2153.16"/>
    </edge>
    <edge id=":1065961871_1" function="internal">
        <lane id=":1065961871_1_0" index="0" allow="pedestrian delivery bicycle" speed="5.38" length="5.10" shape="396.02,2155.74 397.28,2155.44 398.42,2155.62 399.44,2156.27 400.34,2157.40"/>
    </edge>
    <edge id=":1065961876_0" function="internal">
        <lane id=":1065961876_0_0" index="0" allow="pedestrian delivery bicycle" speed="3.65" length="4.67" shape="376.73,2132.44 377.02,2131.02 377.61,2130.36 378.51,2130.43 379.69,2131.24"/>
    </edge>
    <edge id=":1065961880_0" function="internal">
        <lane id=":1065961880_0_0" index="0" disallow="pedestrian tram rail_urban rail rail_electric rail_fast ship" speed="13.89" length="7.05" shape="332.30,2260.05 332.19,2257.97 331.95,2256.55 331.49,2255.18 330.71,2253.24"/>
    </edge>
    <edge id=":1065961880_1" function="internal">
        <lane id=":1065961880_1_0" index="0" allow="pedestrian delivery bicycle" speed="7.79" length="3.77" shape="332.30,2260.05 332.69,2257.88 333.60,2256.60"/>
    </edge>
    <edge id=":1065961880_2" function="internal">
        <lane id=":1065961880_2_0" index="0" disallow="pedestrian tram rail_urban rail rail_electric rail_fast ship" speed="3.65" length="2.34" shape="332.30,2260.05 333.06,2258.82 333.85,2258.40"/>
    </edge>
    <edge id=":1065961880_9" function="internal">
        <lane id=":1065961880_9_0" index="0" allow="pedestrian delivery bicycle" speed="7.79" length="6.91" shape="333.60,2256.60 334.02,2256.02 336.28,2254.45 339.48,2253.18"/>
    </edge>
    <edge id=":1065961880_10" function="internal">
        <lane id=":1065961880_10_0" index="0" disallow="pedestrian tram rail_urban rail rail_electric rail_fast ship" speed="3.65" length="2.34" shape="333.85,2258.40 334.66,2258.77 335.50,2259.94"/>
    </edge>
    <edge id=":1065961880_3" function="internal">
        <lane id=":1065961880_3_0" index="0" disallow="pedestrian tram rail_urban rail rail_electric rail_fast ship" speed="6.23" length="6.53" shape="340.42,2256.23 338.24,2257.04 336.69,2257.93 335.78,2258.89 335.50,2259.94"/>
    </edge>
    <edge id=":1065961880_4" function="internal">
        <lane id=":1065961880_4_0" index="0" disallow="pedestrian tram rail_urban rail rail_electric rail_fast ship" speed="7.44" length="11.31" shape="340.42,2256.23 336.98,2256.92 334.21,2256.65 332.12,2255.42 330.71,2253.24"/>
    </edge>
    <edge id=":1065961880_5" function="internal">
        <lane id=":1065961880_5_0" index="0" allow="pedestrian delivery bicycle" speed="3.65" length="4.67" shape="340.42,2256.23 339.04,2255.82 338.42,2255.18 338.57,2254.29 339.48,2253.18"/>
    </edge>
    <edge id=":1065961880_6" function="internal">
        <lane id=":1065961880_6_0" index="0" allow="pedestrian delivery bicycle" speed="5.80" length="6.50" shape="333.67,2252.05 334.43,2253.09 335.65,2253.62 337.33,2253.65 339.48,2253.18"/>
    </edge>
    <edge id=":1065961880_7" function="internal">
        <lane id=":1065961880_7_0" index="0" disallow="pedestrian tram rail_urban rail rail_electric rail_fast ship" speed="13.89" length="8.18" shape="333.67,2252.05 334.58,2254.29 335.11,2255.88 335.37,2257.53 335.50,2259.94"/>
    </edge>
    <edge id=":1065961880_8" function="internal">
        <lane id=":1065961880_8_0" index="0" disallow="pedestrian tram rail_urban rail rail_electric rail_fast ship" speed="3.65" length="2.34" shape="333.67,2252.05 333.38,2253.46 332.79,2254.13"/>
    </edge>
    <edge id=":1065961880_11" function="internal">
        <lane id=":1065961880_11_0" index="0" disallow="pedestrian tram rail_urban rail rail_electric rail_fast ship" speed="3.65" length="2.34" shape="332.79,2254.13 331.90,2254.06 330.71,2253.24"/>
    </edge>
    <edge id=":1065961889_0" function="internal">
        <lane id=":1065961889_0_0" index="0" disallow="pedestrian tram rail_urban rail rail_electric rail_fast ship" speed="12.63" length="13.71" shape="571.05,2091.59 573.21,2088.45 573.66,2085.75 573.27,2082.74 572.92,2078.63"/>
    </edge>
    <edge id=":1065961889_1" function="internal">
        <lane id=":1065961889_1_0" index="0" disallow="pedestrian tram rail_urban rail rail_electric rail_fast ship" speed="13.89" length="13.74" shape="571.05,2091.59 580.22,2081.36"/>
    </edge>
    <edge id=":1065961891_0" function="internal">
        <lane id=":1065961891_0_0" index="0" disallow="pedestrian tram rail_urban rail rail_electric rail_fast ship" speed="12.90" length="13.75" shape="617.13,2039.74 619.27,2036.55 619.71,2033.85 619.33,2030.83 619.00,2026.71"/>
    </edge>
    <edge id=":1065961891_1" function="internal">
        <lane id=":1065961891_1_0" index="0" disallow="pedestrian tram rail_urban rail rail_electric rail_fast ship" speed="13.89" length="13.75" shape="617.13,2039.74 626.29,2029.49"/>
    </edge>
    <edge id=":1065961894_0" function="internal">
        <lane id=":1065961894_0_0" index="0" allow="pedestrian delivery bicycle" speed="5.56" length="6.67" shape="434.73,2234.44 432.96,2235.32 431.71,2235.84 430.40,2236.23 428.49,2236.71"/>
    </edge>
    <edge id=":1065961894_1" function="internal">
        <lane id=":1065961894_1_0" index="0" allow="pedestrian delivery bicycle" speed="4.76" length="5.45" shape="430.06,2232.66 430.73,2234.09 430.69,2235.24 429.94,2236.11 428.49,2236.71"/>
    </edge>
    <edge id=":1065961896_0" function="internal">
        <lane id=":1065961896_0_0" index="0" disallow="pedestrian tram rail_urban rail rail_electric rail_fast ship" speed="13.89" length="10.47" shape="663.07,1988.47 665.35,1986.34 667.14,1984.98 668.54,1983.41 669.68,1980.64"/>
    </edge>
    <edge id=":1065961896_1" function="internal">
        <lane id=":1065961896_1_0" index="0" disallow="pedestrian tram rail_urban rail rail_electric rail_fast ship" speed="8.72" length="8.64" shape="663.07,1988.47 664.29,1987.60 666.07,1987.05 668.42,1986.83 671.33,1986.94"/>
    </edge>
    <edge id=":1065961897_0" function="internal">
        <lane id=":1065961897_0_0" index="0" allow="pedestrian delivery bicycle" speed="5.56" length="6.46" shape="390.09,2161.47 389.17,2159.83 388.21,2158.89 387.24,2157.95 386.32,2156.31"/>
    </edge>
    <edge id=":1065961897_1" function="internal">
        <lane id=":1065961897_1_0" index="0" allow="pedestrian delivery bicycle" speed="5.56" length="6.35" shape="390.09,2161.47 389.87,2160.10 390.33,2158.88 391.48,2157.79 393.32,2156.83"/>
    </edge>
    <edge id=":1065961897_2" function="internal">
        <lane id=":1065961897_2_0" index="0" allow="pedestrian delivery bicycle" speed="5.04" length="5.00" shape="389.29,2155.12 389.97,2156.31 390.87,2156.99 391.99,2157.16 393.32,2156.83"/>
    </edge>
    <edge id=":1065961897_3" function="internal">
        <lane id=":1065961897_3_0" index="0" allow="pedestrian delivery bicycle" speed="3.65" length="4.67" shape="389.29,2155.12 388.99,2156.53 388.40,2157.20 387.51,2157.13 386.32,2156.31"/>
    </edge>
    <edge id=":1132622212_0" function="internal">
        <lane id=":1132622212_0_0" index="0" allow="pedestrian delivery bicycle" speed="6.65" length="7.80" shape="533.34,2310.04 532.59,2309.27 531.10,2308.86 528.89,2308.82 525.94,2309.15"/>
    </edge>
    <edge id=":1132622212_1" function="internal">
        <lane id=":1132622212_1_0" index="0" disallow="pedestrian tram rail_urban rail rail_electric rail_fast ship" speed="11.11" length="6.60" shape="533.34,2310.04 530.70,2304.07"/>
        <lane id=":1132622212_1_1" index="1" disallow="pedestrian tram rail_urban rail rail_electric rail_fast ship" speed="11.11" length="6.60" shape="536.31,2308.85 533.61,2302.74"/>
    </edge>
    <edge id=":1163001926_0" function="internal">
        <lane id=":1163001926_0_0" index="0" disallow="pedestrian tram rail_urban rail rail_electric rail_fast ship" speed="5.99" length="7.65" shape="383.61,2273.93 383.11,2271.29 382.30,2269.46 381.18,2268.46 379.74,2268.27"/>
    </edge>
    <edge id=":1163001926_1" function="internal">
        <lane id=":1163001926_1_0" index="0" disallow="pedestrian tram rail_urban rail rail_electric rail_fast ship" speed="6.95" length="12.66" shape="383.61,2273.93 383.54,2269.82 384.35,2266.76 386.06,2264.77 388.65,2263.83"/>
    </edge>
    <edge id=":1163001926_2" function="internal">
        <lane id=":1163001926_2_0" index="0" allow="pedestrian delivery bicycle" speed="3.65" length="4.67" shape="383.61,2273.93 384.27,2272.65 385.02,2272.17 385.86,2272.48 386.79,2273.58"/>
    </edge>
    <edge id=":1163001926_3" function="internal">
        <lane id=":1163001926_3_0" index="0" allow="pedestrian delivery bicycle" speed="6.09" length="7.66" shape="389.07,2267.00 387.82,2267.56 387.02,2268.85 386.67,2270.85 386.79,2273.58"/>
    </edge>
    <edge id=":1163001926_4" function="internal">
        <lane id=":1163001926_4_0" index="0" disallow="pedestrian tram rail_urban rail rail_electric rail_fast ship" speed="8.33" length="9.42" shape="389.07,2267.00 379.74,2268.27"/>
    </edge>
    <edge id=":1163001926_5" function="internal">
        <lane id=":1163001926_5_0" index="0" disallow="pedestrian tram rail_urban rail rail_electric rail_fast ship" speed="3.65" length="2.34" shape="389.07,2267.00 387.78,2266.37 387.28,2265.63"/>
    </edge>
    <edge id=":1163001926_9" function="internal">
        <lane id=":1163001926_9_0" index="0" disallow="pedestrian tram rail_urban rail rail_electric rail_fast ship" speed="3.65" length="2.34" shape="387.28,2265.63 387.57,2264.78 388.65,2263.83"/>
    </edge>
    <edge id=":1163001926_6" function="internal">
        <lane id=":1163001926_6_0" index="0" disallow="pedestrian tram rail_urban rail rail_electric rail_fast ship" speed="8.33" length="9.43" shape="379.30,2265.10 388.65,2263.83"/>
    </edge>
    <edge id=":1163001926_7" function="internal">
        <lane id=":1163001926_7_0" index="0" allow="pedestrian delivery bicycle" speed="6.95" length="4.42" shape="379.30,2265.10 382.19,2265.30 383.46,2266.15"/>
    </edge>
    <edge id=":1163001926_8" function="internal">
        <lane id=":1163001926_8_0" index="0" disallow="pedestrian tram rail_urban rail rail_electric rail_fast ship" speed="3.65" length="2.34" shape="379.30,2265.10 380.60,2265.73 381.11,2266.46"/>
    </edge>
    <edge id=":1163001926_10" function="internal">
        <lane id=":1163001926_10_0" index="0" allow="pedestrian delivery bicycle" speed="6.95" length="8.42" shape="383.46,2266.15 384.40,2266.78 385.93,2269.54 386.79,2273.58"/>
    </edge>
    <edge id=":1163001926_11" function="internal">